@<TRIPOS>MOLECULE
/home/conradli/SAC-for-H-Bond-Learning/data/8TFV/8tfv_pnon.pdb
 217 220 0 0 0
SMALL
GASTEIGER

@<TRIPOS>ATOM
      1  N          8.7510    1.3220    2.6440 N.3     1  GLY1       -0.2365
      2  H          9.6810    1.2310    2.1770 H       1  GLY1        0.1419
      3  CA         7.7620    0.5720    1.8080 C.3     1  GLY1        0.1694
      4  C          8.5560   -0.0060    0.6380 C.2     1  GLY1        0.2403
      5  O          9.7530    0.2000    0.6140 O.2     1  GLY1       -0.2735
      6  N          7.9150   -0.6890   -0.2730 N.am    2  SER2       -0.2952
      7  H          6.9470   -0.8460   -0.2310 H       2  SER2        0.1499
      8  CA         8.6350   -1.2820   -1.4440 C.3     2  SER2        0.1782
      9  CB         8.3190   -2.7870   -1.4580 C.3     2  SER2        0.1660
     10  OG         6.9050   -2.8220   -1.2480 O.3     2  SER2       -0.3798
     11  HG         6.7140   -3.5260   -0.6160 H       2  SER2        0.2105
     12  C          8.1750   -0.6030   -2.7450 C.2     2  SER2        0.2432
     13  O          8.9080    0.1520   -3.3480 O.2     2  SER2       -0.2732
     14  N          6.9620   -0.9020   -3.1190 N.am    3  LYS3       -0.2969
     15  H          6.4710   -1.5280   -2.5390 H       3  LYS3        0.1499
     16  CA         6.3620   -0.3250   -4.3630 C.3     3  LYS3        0.1486
     17  CB         5.9450   -1.5010   -5.2760 C.3     3  LYS3        0.0289
     18  CG         5.3890   -0.9880   -6.6300 C.3     3  LYS3        0.0000
     19  CD         5.0130   -2.2030   -7.5080 C.3     3  LYS3       -0.0238
     20  CE         4.3960   -1.6980   -8.8300 C.3     3  LYS3       -0.0862
     21  NZ         4.0060   -2.8610   -9.6880 N.4     3  LYS3        0.3804
     22  HZ1        4.2460   -3.7580   -9.2130 H       3  LYS3       -0.0894
     23  HZ2        2.9800   -2.8260   -9.8690 H       3  LYS3       -0.0894
     24  HZ3        4.5090   -2.8180  -10.6000 H       3  LYS3       -0.0894
     25  C          5.1510    0.5360   -3.9700 C.2     3  LYS3        0.2406
     26  O          4.4760    0.2480   -3.0020 O.2     3  LYS3       -0.2733
     27  N          4.9010    1.5670   -4.7340 N.am    4  LYS4       -0.2970
     28  H          5.4760    1.7440   -5.5070 H       4  LYS4        0.1499
     29  CA         3.7510    2.4890   -4.4610 C.3     4  LYS4        0.1488
     30  CB         4.3290    3.8970   -4.1130 C.3     4  LYS4        0.0289
     31  CG         3.2090    4.9730   -3.9320 C.3     4  LYS4        0.0000
     32  CD         2.2630    4.6340   -2.7440 C.3     4  LYS4       -0.0238
     33  CE         1.1100    5.6730   -2.6720 C.3     4  LYS4       -0.0862
     34  NZ         1.6220    7.0450   -2.3250 N.4     4  LYS4        0.3804
     35  HZ1        2.6520    7.0150   -2.1750 H       4  LYS4       -0.0894
     36  HZ2        1.4010    7.7100   -3.0930 H       4  LYS4       -0.0894
     37  HZ3        1.1720    7.3820   -1.4450 H       4  LYS4       -0.0894
     38  C          2.8490    2.5450   -5.7110 C.2     4  LYS4        0.2438
     39  O          3.2180    3.1630   -6.6910 O.2     4  LYS4       -0.2731
     40  N          1.7050    1.9000   -5.6690 N.am    5  PRO5       -0.2717
     41  CD         1.2960    0.9020   -4.6390 C.3     5  PRO5        0.0939
     42  CA         0.6520    2.1030   -6.7010 C.3     5  PRO5        0.1518
     43  CB        -0.5550    1.3520   -6.1260 C.3     5  PRO5        0.0310
     44  CG         0.1330    0.1870   -5.3580 C.3     5  PRO5        0.0237
     45  C          0.4170    3.6040   -6.9480 C.2     5  PRO5        0.2409
     46  O          0.3970    4.3950   -6.0200 O.2     5  PRO5       -0.2733
     47  N          0.2420    3.9440   -8.1980 N.am    6  VAL6       -0.2970
     48  H          0.2510    3.2770   -8.9140 H       6  VAL6        0.1499
     49  CA         0.0080    5.3620   -8.5760 C.3     6  VAL6        0.1487
     50  CB         1.2710    5.8320   -9.3930 C.3     6  VAL6        0.0269
     51  CG1        1.4220    5.0740  -10.6920 C.3     6  VAL6        0.0022
     52  CG2        1.2070    7.3130   -9.6810 C.3     6  VAL6        0.0022
     53  C         -1.2980    5.3900   -9.3980 C.2     6  VAL6        0.2438
     54  O         -1.5560    4.4440  -10.1180 O.2     6  VAL6       -0.2731
     55  N         -2.0700    6.4470   -9.2590 N.am    7  PRO7       -0.2717
     56  CD        -1.9320    7.4630   -8.1770 C.3     7  PRO7        0.0939
     57  CA        -3.2090    6.7550  -10.1730 C.3     7  PRO7        0.1518
     58  CB        -4.0090    7.8210   -9.4070 C.3     7  PRO7        0.0310
     59  CG        -2.9200    8.5700   -8.5960 C.3     7  PRO7        0.0237
     60  C         -2.7170    7.2230  -11.5530 C.2     7  PRO7        0.2409
     61  O         -1.5390    7.1540  -11.8510 O.2     7  PRO7       -0.2733
     62  N         -3.6220    7.7080  -12.3600 N.am    8  ILE8       -0.2970
     63  H         -4.5680    7.7920  -12.0960 H       8  ILE8        0.1499
     64  CA        -3.2260    8.1800  -13.7150 C.3     8  ILE8        0.1485
     65  CB        -4.4210    8.0810  -14.6970 C.3     8  ILE8        0.0269
     66  CG2       -4.2660    8.9560  -15.9200 C.3     8  ILE8        0.0022
     67  CG1       -4.5830    6.5830  -15.0440 C.3     8  ILE8        0.0021
     68  CD        -4.5350    6.3100  -16.5280 C.3     8  ILE8        0.0001
     69  C         -2.8360    9.6310  -13.5380 C.2     8  ILE8        0.2406
     70  O         -3.3190   10.2960  -12.6450 O.2     8  ILE8       -0.2733
     71  N         -1.9680   10.1130  -14.3720 N.am    9  ILE9       -0.2970
     72  H         -1.5500    9.5770  -15.0710 H       9  ILE9        0.1499
     73  CA        -1.5750   11.5210  -14.2600 C.3     9  ILE9        0.1485
     74  CB        -0.0690   11.6150  -14.4400 C.3     9  ILE9        0.0269
     75  CG2        0.3880   12.7320  -15.3480 C.3     9  ILE9        0.0022
     76  CG1        0.5960   11.6410  -13.0670 C.3     9  ILE9        0.0021
     77  CD         0.6840   13.0510  -12.5230 C.3     9  ILE9        0.0001
     78  C         -2.3270   12.1370  -15.3990 C.2     9  ILE9        0.2406
     79  O         -2.5200   11.5710  -16.4600 O.2     9  ILE9       -0.2733
     80  N         -2.7170   13.3210  -15.0980 N.am   10  TYR10      -0.2967
     81  H         -2.4850   13.6770  -14.2160 H      10  TYR10       0.1499
     82  CA        -3.4800   14.1310  -16.0490 C.3    10  TYR10       0.1530
     83  CB        -4.9000   14.2470  -15.5300 C.3    10  TYR10       0.0553
     84  CG        -5.8070   14.3990  -16.7380 C.ar   10  TYR10      -0.0198
     85  CD1       -5.9570   13.3190  -17.5860 C.ar   10  TYR10      -0.0011
     86  CD2       -6.4680   15.5790  -17.0030 C.ar   10  TYR10      -0.0011
     87  CE1       -6.7600   13.4140  -18.6890 C.ar   10  TYR10       0.0363
     88  CE2       -7.2740   15.6710  -18.1130 C.ar   10  TYR10       0.0363
     89  CZ        -7.4170   14.5880  -18.9500 C.ar   10  TYR10       0.1337
     90  OH        -8.2330   14.6910  -20.0550 O.3    10  TYR10      -0.5055
     91  HH        -8.9540   14.0620  -19.9680 H      10  TYR10       0.2922
     92  C         -2.7600   15.4490  -16.0410 C.2    10  TYR10       0.2410
     93  O         -2.8960   16.2010  -15.0940 O.2    10  TYR10      -0.2733
     94  N         -1.9990   15.7000  -17.0660 N.am   11  CYS11      -0.2963
     95  H         -1.8760   15.0860  -17.8090 H      11  CYS11       0.1499
     96  CA        -1.2600   16.9600  -17.1460 C.3    11  CYS11       0.1603
     97  CB         0.1860   16.6660  -17.2430 C.3    11  CYS11       0.0976
     98  SG         1.0310   15.6580  -15.9990 S.3    11  CYS11      -0.0798
     99  C         -1.6810   17.7310  -18.3800 C.2    11  CYS11       0.2416
    100  O         -1.7250   17.1770  -19.4620 O.2    11  CYS11      -0.2733
    101  N         -1.9720   18.9850  -18.2010 N.am   12  ASN12      -0.2966
    102  H         -1.9200   19.3680  -17.3020 H      12  ASN12       0.1499
    103  CA        -2.3810   19.8080  -19.3670 C.3    12  ASN12       0.1577
    104  CB        -3.6180   20.6300  -19.0840 C.3    12  ASN12       0.1137
    105  CG        -4.0900   21.2760  -20.4060 C.2    12  ASN12       0.2216
    106  OD1       -4.1850   20.6780  -21.4650 O.2    12  ASN12      -0.2753
    107  ND2       -4.4080   22.5280  -20.4000 N.am   12  ASN12      -0.3287
    108 HD21       -4.2920   23.0800  -19.5930 H      12  ASN12       0.1449
    109 HD22       -4.7670   22.9180  -21.2180 H      12  ASN12       0.1449
    110  C         -1.2250   20.7280  -19.6360 C.2    12  ASN12       0.2411
    111  O         -1.2660   21.9200  -19.4030 O.2    12  ASN12      -0.2733
    112  N         -0.2040   20.0660  -20.1120 N.am   13  ARG13      -0.2970
    113  H         -0.3150   19.0970  -20.2160 H      13  ARG13       0.1499
    114  CA         1.0920   20.7040  -20.4880 C.3    13  ARG13       0.1487
    115  CB         1.7540   19.8250  -21.5720 C.3    13  ARG13       0.0325
    116  CG         1.9450   18.3560  -21.0700 C.3    13  ARG13       0.0450
    117  CD         2.8160   18.2880  -19.7840 C.3    13  ARG13       0.1739
    118  NE         4.1020   19.0030  -20.0660 N.pl3  13  ARG13      -0.2651
    119  HE         4.6360   18.7350  -20.8450 H      13  ARG13       0.2586
    120  CZ         4.5140   19.9680  -19.2990 C.cat  13  ARG13       0.3417
    121  NH1        5.1960   19.6400  -18.2440 N.pl3  13  ARG13      -0.2918
    122 HH11        5.3880   18.6730  -18.0670 H      13  ARG13       0.2545
    123 HH12        5.5360   20.3240  -17.5980 H      13  ARG13       0.2545
    124  NH2        4.2130   21.1900  -19.6380 N.pl3  13  ARG13      -0.2918
    125 HH21        3.6750   21.3620  -20.4650 H      13  ARG13       0.2545
    126 HH22        4.5040   21.9790  -19.0970 H      13  ARG13       0.2545
    127  C          0.8470   22.1330  -21.0010 C.2    13  ARG13       0.2406
    128  O          1.5690   23.0530  -20.6750 O.2    13  ARG13      -0.2733
    129  N         -0.1910   22.2130  -21.7970 N.am   14  ARG14      -0.2970
    130  H         -0.6860   21.3910  -21.9700 H      14  ARG14       0.1499
    131  CA        -0.6610   23.4760  -22.4360 C.3    14  ARG14       0.1487
    132  CB        -2.0270   23.1550  -23.1020 C.3    14  ARG14       0.0325
    133  CG        -1.7770   22.2600  -24.3520 C.3    14  ARG14       0.0450
    134  CD        -3.1140   21.7450  -24.9640 C.3    14  ARG14       0.1739
    135  NE        -3.5610   20.5060  -24.2340 N.pl3  14  ARG14      -0.2651
    136  HE        -3.7610   20.5400  -23.2590 H      14  ARG14       0.2586
    137  CZ        -3.6840   19.3870  -24.8940 C.cat  14  ARG14       0.3417
    138  NH1       -2.5900   18.8860  -25.3830 N.pl3  14  ARG14      -0.2918
    139 HH11       -1.7420   19.3870  -25.2090 H      14  ARG14       0.2545
    140 HH12       -2.5710   18.0380  -25.9130 H      14  ARG14       0.2545
    141  NH2       -4.8610   18.8470  -25.0280 N.pl3  14  ARG14      -0.2918
    142 HH21       -5.6470   19.3100  -24.6160 H      14  ARG14       0.2545
    143 HH22       -5.0150   17.9920  -25.5250 H      14  ARG14       0.2545
    144  C         -0.7680   24.5890  -21.3820 C.2    14  ARG14       0.2407
    145  O         -0.1460   25.6210  -21.5100 O.2    14  ARG14      -0.2733
    146  N         -1.5430   24.3560  -20.3600 N.am   15  THR15      -0.2951
    147  H         -2.0300   23.5100  -20.2760 H      15  THR15       0.1499
    148  CA        -1.6940   25.3900  -19.2870 C.3    15  THR15       0.1757
    149  CB        -3.1820   25.5440  -18.9180 C.3    15  THR15       0.1373
    150  OG1       -3.5830   24.2720  -18.4180 O.3    15  THR15      -0.3823
    151  HG1       -3.1300   24.1950  -17.5620 H      15  THR15       0.2104
    152  CG2       -4.0170   25.7270  -20.1590 C.3    15  THR15       0.0340
    153  C         -0.9040   24.8240  -18.1070 C.2    15  THR15       0.2432
    154  O         -1.2910   24.9780  -16.9620 O.2    15  THR15      -0.2732
    155  N          0.1720   24.1820  -18.4950 N.am   16  GLY16      -0.2952
    156  H          0.3310   24.1320  -19.4590 H      16  GLY16       0.1499
    157  CA         1.1640   23.5100  -17.6060 C.3    16  GLY16       0.1757
    158  C          0.6960   23.2330  -16.2120 C.2    16  GLY16       0.2428
    159  O          1.2820   23.7070  -15.2570 O.2    16  GLY16      -0.2732
    160  N         -0.3550   22.4660  -16.1230 N.am   17  LYS17      -0.2969
    161  H         -0.8050   22.0890  -16.9160 H      17  LYS17       0.1499
    162  CA        -0.8540   22.1570  -14.7730 C.3    17  LYS17       0.1486
    163  CB        -2.0750   23.0320  -14.4130 C.3    17  LYS17       0.0289
    164  CG        -2.0930   23.0950  -12.8610 C.3    17  LYS17       0.0000
    165  CD        -3.2180   23.9770  -12.2480 C.3    17  LYS17      -0.0238
    166  CE        -4.5980   23.2990  -12.3650 C.3    17  LYS17      -0.0862
    167  NZ        -5.6380   24.1010  -11.6480 N.4    17  LYS17       0.3804
    168  HZ1       -5.2130   24.9370  -11.1960 H      17  LYS17      -0.0894
    169  HZ2       -6.3570   24.4140  -12.3330 H      17  LYS17      -0.0894
    170  HZ3       -6.1000   23.5340  -10.9030 H      17  LYS17      -0.0894
    171  C         -1.2580   20.7100  -14.8330 C.2    17  LYS17       0.2407
    172  O         -1.9920   20.2940  -15.7090 O.2    17  LYS17      -0.2733
    173  N         -0.7370   19.9720  -13.9090 N.am   18  CYS18      -0.2963
    174  H         -0.1240   20.3800  -13.2790 H      18  CYS18       0.1499
    175  CA        -1.0530   18.5280  -13.8310 C.3    18  CYS18       0.1603
    176  CB         0.2010   17.7230  -14.0460 C.3    18  CYS18       0.0976
    177  SG         0.0110   15.9460  -14.2800 S.3    18  CYS18      -0.0798
    178  C         -1.6310   18.1920  -12.4750 C.2    18  CYS18       0.2416
    179  O         -1.4950   18.9140  -11.5060 O.2    18  CYS18      -0.2733
    180  N         -2.2650   17.0660  -12.5160 N.am   19  GLN19      -0.2970
    181  H         -2.2790   16.6080  -13.3860 H      19  GLN19       0.1499
    182  CA        -2.9490   16.4520  -11.3530 C.3    19  GLN19       0.1491
    183  CB        -4.3110   17.1140  -11.2240 C.3    19  GLN19       0.0385
    184  CG        -5.1560   16.8130  -12.4920 C.3    19  GLN19       0.0870
    185  CD        -6.2290   17.8790  -12.6310 C.2    19  GLN19       0.2194
    186  OE1       -7.0550   18.0720  -11.7700 O.2    19  GLN19      -0.2753
    187  NE2       -6.2630   18.6130  -13.7000 N.am   19  GLN19      -0.3288
    188 HE21       -5.6020   18.4660  -14.4060 H      19  GLN19       0.1449
    189 HE22       -6.9500   19.3060  -13.7850 H      19  GLN19       0.1449
    190  C         -3.0780   14.9590  -11.6530 C.2    19  GLN19       0.2406
    191  O         -2.4650   14.4510  -12.5720 O.2    19  GLN19      -0.2733
    192  N         -3.8810   14.2890  -10.8770 N.am   20  ARG20      -0.2970
    193  H         -4.3780   14.6470  -10.1510 H      20  ARG20       0.1499
    194  CA        -4.1240   12.8730  -11.0260 C.3    20  ARG20       0.1487
    195  CB        -3.8830   12.1840   -9.6960 C.3    20  ARG20       0.0325
    196  CG        -2.4240   12.3030   -9.2360 C.3    20  ARG20       0.0450
    197  CD        -1.4710   11.7210  -10.3240 C.3    20  ARG20       0.1739
    198  NE        -0.0350   11.7340   -9.8720 N.pl3  20  ARG20      -0.2651
    199  HE         0.6540   11.3710  -10.4770 H      20  ARG20       0.2586
    200  CZ         0.2980   12.2170   -8.7170 C.cat  20  ARG20       0.3417
    201  NH1        0.1220   11.4630   -7.6820 N.pl3  20  ARG20      -0.2918
    202 HH11       -0.2430   10.5460   -7.8240 H      20  ARG20       0.2545
    203 HH12        0.3370   11.7720   -6.7590 H      20  ARG20       0.2545
    204  NH2        0.7760   13.4220   -8.6710 N.pl3  20  ARG20      -0.2918
    205 HH21        0.8770   13.9410   -9.5200 H      20  ARG20       0.2545
    206 HH22        1.0450   13.8510   -7.8100 H      20  ARG20       0.2545
    207  C         -5.5620   12.6410  -11.4580 C.2    20  ARG20       0.2406
    208  O         -6.4410   13.4110  -11.1290 O.2    20  ARG20      -0.2733
    209  N         -5.6960   11.5780  -12.1850 N.am   21  MET21      -0.2980
    210  H         -4.8830   11.0590  -12.3750 H      21  MET21       0.1498
    211  CA        -6.9930   11.0930  -12.7410 C.3    21  MET21       0.1377
    212  CB        -7.1400   11.5420  -14.2210 C.3    21  MET21       0.0393
    213  CG        -7.6210   13.0100  -14.2750 C.3    21  MET21       0.0597
    214  SD        -9.2360   13.3770  -13.5410 S.3    21  MET21      -0.1393
    215  CE       -10.2870   12.5980  -14.7950 C.3    21  MET21       0.0692
    216  C         -6.9870    9.5530  -12.6410 C.2    21  MET21       0.2267
    217  O         -6.0730    9.0270  -12.0200 O.2    21  MET21      -0.2865
@<TRIPOS>BOND
     1   140   138    1
     2   143   141    1
     3   138   139    1
     4   138   137    2
     5   141   137    1
     6   141   142    1
     7   134   133    1
     8   134   135    1
     9   137   135    1
    10   133   132    1
    11   135   136    1
    12   132   131    1
    13   131   129    1
    14   131   144    1
    15   130   129    1
    16   129   127   am
    17   115   116    1
    18   115   114    1
    19   145   144    2
    20   106   105    2
    21   144   146   am
    22   109   107    1
    23   116   117    1
    24   127   128    2
    25   127   114    1
    26   119   118    1
    27   114   112    1
    28   125   124    1
    29   105   107   am
    30   105   104    1
    31   107   108    1
    32   146   147    1
    33   146   148    1
    34   113   112    1
    35   152   149    1
    36   112   110   am
    37   118   117    1
    38   118   120    1
    39    90    91    1
    40    90    89    1
    41   124   120    2
    42   124   126    1
    43   110   111    2
    44   110   103    1
    45   100    99    2
    46   156   155    1
    47   103   104    1
    48   103   101    1
    49   120   121    1
    50   148   149    1
    51   148   153    1
    52    89    87   ar
    53    89    88   ar
    54   149   150    1
    55    87    85   ar
    56   155   153   am
    57   155   157    1
    58   150   151    1
    59    99   101   am
    60    99    96    1
    61   121   122    1
    62   121   123    1
    63   101   102    1
    64    88    86   ar
    65   153   154    2
    66    95    94    1
    67   157   158    1
    68    85    84   ar
    69    97    96    1
    70    97    98    1
    71    96    94    1
    72    94    92   am
    73    86    84   ar
    74   161   160    1
    75    84    83    1
    76    68    67    1
    77    79    78    2
    78   158   160   am
    79   158   159    2
    80   160   162    1
    81    82    92    1
    82    82    83    1
    83    82    80    1
    84    92    93    2
    85    98   177    1
    86    66    65    1
    87   172   171    2
    88    78    80   am
    89    78    73    1
    90    75    74    1
    91    80    81    1
    92    72    71    1
    93    67    65    1
    94   171   162    1
    95   171   173   am
    96   215   214    1
    97   162   163    1
    98    65    64    1
    99    74    73    1
   100    74    76    1
   101   163   164    1
   102   188   187    1
   103    71    73    1
   104    71    69   am
   105   177   176    1
   106   213   212    1
   107   213   214    1
   108   212   211    1
   109   176   175    1
   110   173   175    1
   111   173   174    1
   112   175   178    1
   113   189   187    1
   114    64    69    1
   115    64    62    1
   116   187   185   am
   117    69    70    2
   118   181   180    1
   119    76    77    1
   120   164   165    1
   121   211   216    1
   122   211   209    1
   123   216   217    2
   124   185   184    1
   125   185   186    2
   126   191   190    2
   127   180   178   am
   128   180   182    1
   129   184   183    1
   130   178   179    2
   131   210   209    1
   132   166   165    1
   133   166   167    1
   134    62    63    1
   135    62    60   am
   136   169   167    1
   137   209   207   am
   138    61    60    2
   139   190   182    1
   140   190   192   am
   141   167   168    1
   142   167   170    1
   143    60    57    1
   144   207   208    2
   145   207   194    1
   146   182   183    1
   147   194   192    1
   148   194   195    1
   149   192   193    1
   150    51    50    1
   151    24    21    1
   152   199   198    1
   153   197   198    1
   154   197   196    1
   155    57    58    1
   156    57    55    1
   157    54    53    2
   158   198   200    1
   159    23    21    1
   160   195   196    1
   161    21    22    1
   162    21    20    1
   163    52    50    1
   164   205   204    1
   165    58    59    1
   166    53    55   am
   167    53    49    1
   168    50    49    1
   169    55    56    1
   170    48    47    1
   171    20    19    1
   172   200   204    2
   173   200   201    1
   174   204   206    1
   175    59    56    1
   176    49    47    1
   177    47    45   am
   178   202   201    1
   179   201   203    1
   180    19    18    1
   181    45    42    1
   182    45    46    2
   183    42    43    1
   184    42    40    1
   185    39    38    2
   186    18    17    1
   187    43    44    1
   188    38    40   am
   189    38    29    1
   190    40    41    1
   191    28    27    1
   192    44    41    1
   193    17    16    1
   194    27    29    1
   195    27    25   am
   196    29    30    1
   197    16    25    1
   198    16    14    1
   199    30    31    1
   200    25    26    2
   201    31    32    1
   202    13    12    2
   203    14    12   am
   204    14    15    1
   205    36    34    1
   206    12     8    1
   207    32    33    1
   208    33    34    1
   209    34    35    1
   210    34    37    1
   211     9     8    1
   212     9    10    1
   213     8     6    1
   214    10    11    1
   215     6     7    1
   216     6     4   am
   217     5     4    2
   218     4     3    1
   219     3     1    1
   220     2     1    1
