@<TRIPOS>MOLECULE
/home/conradli/SAC-for-H-Bond-Learning/data/1L2Y/1l2y_pnon.pdb
 186 192 0 0 0
SMALL
GASTEIGER

@<TRIPOS>ATOM
      1  N         -8.9010    4.1270   -0.5550 N.3     1  ASN1       -0.2376
      2  H         -8.3300    3.9570    0.2610 H       1  ASN1        0.1418
      3  CA        -8.6080    3.1350   -1.6180 C.3     1  ASN1        0.1539
      4  CB        -9.4370    3.3960   -2.8890 C.3     1  ASN1        0.1111
      5  CG       -10.9150    3.1300   -2.6110 C.2     1  ASN1        0.2213
      6  OD1      -11.2690    2.7000   -1.5240 O.2     1  ASN1       -0.2753
      7  ND2      -11.8060    3.4060   -3.5430 N.am    1  ASN1       -0.3287
      8 HD21      -11.5720    3.7910   -4.4440 H       1  ASN1        0.1449
      9 HD22      -12.7570    3.1830   -3.2940 H       1  ASN1        0.1449
     10  C         -7.1170    2.9640   -1.8970 C.2     1  ASN1        0.2388
     11  O         -6.6340    1.8490   -1.7580 O.2     1  ASN1       -0.2736
     12  N         -6.3790    4.0310   -2.2280 N.am    2  LEU2       -0.2972
     13  H         -6.8210    4.9230   -2.3940 H       2  LEU2        0.1499
     14  CA        -4.9230    4.0020   -2.4520 C.3     2  LEU2        0.1486
     15  CB        -4.4110    5.4500   -2.6190 C.3     2  LEU2        0.0290
     16  CG        -4.7950    6.4500   -1.4950 C.3     2  LEU2        0.0021
     17  CD1       -3.6120    6.8030   -0.5990 C.3     2  LEU2        0.0001
     18  CD2       -5.3510    7.7480   -2.0840 C.3     2  LEU2        0.0001
     19  C         -4.1360    3.1870   -1.4040 C.2     2  LEU2        0.2406
     20  O         -3.3910    2.2740   -1.7600 O.2     2  LEU2       -0.2733
     21  N         -4.3540    3.4550   -0.1110 N.am    3  TYR3       -0.2967
     22  H         -4.9340    4.2450    0.1200 H       3  TYR3        0.1499
     23  CA        -3.6900    2.7380    0.9810 C.3     3  TYR3        0.1530
     24  CB        -3.9640    3.4720    2.3020 C.3     3  TYR3        0.0553
     25  CG        -2.8240    3.3390    3.2900 C.ar    3  TYR3       -0.0198
     26  CD1       -2.7460    2.2170    4.1380 C.ar    3  TYR3       -0.0011
     27  CD2       -1.8200    4.3260    3.3320 C.ar    3  TYR3       -0.0011
     28  CE1       -1.6570    2.0760    5.0180 C.ar    3  TYR3        0.0363
     29  CE2       -0.7250    4.1850    4.2050 C.ar    3  TYR3        0.0363
     30  CZ        -0.6390    3.0530    5.0430 C.ar    3  TYR3        0.1337
     31  OH         0.4330    2.8810    5.8610 O.3     3  TYR3       -0.5055
     32  HH         1.1870    3.3950    5.5670 H       3  TYR3        0.2922
     33  C         -4.1020    1.2560    1.0740 C.2     3  TYR3        0.2410
     34  O         -3.2910    0.4090    1.4420 O.2     3  TYR3       -0.2733
     35  N         -5.3420    0.9250    0.6890 N.am    4  ILE4       -0.2970
     36  H         -5.9060    1.6560    0.2830 H       4  ILE4        0.1499
     37  CA        -5.8570   -0.4490    0.6130 C.3     4  ILE4        0.1485
     38  CB        -7.3860   -0.4660    0.3430 C.3     4  ILE4        0.0269
     39  CG2       -7.9590   -1.8840    0.5010 C.3     4  ILE4        0.0022
     40  CG1       -8.1970    0.5400    1.1970 C.3     4  ILE4        0.0021
     41  CD        -8.0190    0.4120    2.7150 C.3     4  ILE4        0.0001
     42  C         -5.0890   -1.2210   -0.4700 C.2     4  ILE4        0.2406
     43  O         -4.6210   -2.3340   -0.2260 O.2     4  ILE4       -0.2733
     44  N         -4.9070   -0.6010   -1.6450 N.am    5  GLN5       -0.2970
     45  H         -5.3270    0.3180   -1.7630 H       5  GLN5        0.1499
     46  CA        -4.1220   -1.1670   -2.7430 C.3     5  GLN5        0.1491
     47  CB        -4.2920   -0.3130   -4.0130 C.3     5  GLN5        0.0385
     48  CG        -4.2440   -1.1710   -5.2900 C.3     5  GLN5        0.0870
     49  CD        -5.5760   -1.8600   -5.5850 C.2     5  GLN5        0.2194
     50  OE1       -5.7690   -3.0440   -5.3350 O.2     5  GLN5       -0.2753
     51  NE2       -6.5320   -1.1460   -6.1520 N.am    5  GLN5       -0.3288
     52 HE21       -6.3890   -0.1840   -6.4080 H       5  GLN5        0.1449
     53 HE22       -7.3920   -1.6350   -6.3350 H       5  GLN5        0.1449
     54  C         -2.6290   -1.3210   -2.3900 C.2     5  GLN5        0.2407
     55  O         -1.9860   -2.2400   -2.8840 O.2     5  GLN5       -0.2733
     56  N         -2.0740   -0.4590   -1.5280 N.am    6  TRP6       -0.2967
     57  H         -2.6240    0.3430   -1.2420 H       6  TRP6        0.1499
     58  CA        -0.7160   -0.6310   -0.9930 C.3     6  TRP6        0.1530
     59  CB        -0.2210    0.7030   -0.4170 C.3     6  TRP6        0.0569
     60  CG         1.1480    0.6520    0.1940 C.ar    6  TRP6       -0.0017
     61  CD2        1.5080    0.5640    1.6060 C.ar    6  TRP6        0.0131
     62  CE2        2.9280    0.5150    1.7100 C.ar    6  TRP6        0.0563
     63  CE3        0.7790    0.5240    2.8120 C.ar    6  TRP6        0.0012
     64  CD1        2.3190    0.6640   -0.4820 C.ar    6  TRP6        0.0681
     65  NE1        3.3710    0.5600    0.4110 N.ar    6  TRP6       -0.3523
     66  HE1        4.3600    0.5360    0.1560 H       6  TRP6        0.1660
     67  CZ2        3.5990    0.4450    2.9380 C.ar    6  TRP6        0.0170
     68  CZ3        1.4390    0.4330    4.0530 C.ar    6  TRP6        0.0001
     69  CH2        2.8420    0.4070    4.1200 C.ar    6  TRP6        0.0015
     70  C         -0.6310   -1.7660    0.0440 C.2     6  TRP6        0.2410
     71  O          0.2950   -2.5790   -0.0040 O.2     6  TRP6       -0.2733
     72  N         -1.6000   -1.8600    0.9670 N.am    7  LEU7       -0.2970
     73  H         -2.3160   -1.1370    0.9940 H       7  LEU7        0.1499
     74  CA        -1.6410   -2.9320    1.9630 C.3     7  LEU7        0.1486
     75  CB        -2.7100   -2.6450    3.0330 C.3     7  LEU7        0.0290
     76  CG        -2.3010   -1.5790    4.0690 C.3     7  LEU7        0.0021
     77  CD1       -3.4750   -1.3230    5.0180 C.3     7  LEU7        0.0001
     78  CD2       -1.0930   -2.0070    4.9140 C.3     7  LEU7        0.0001
     79  C         -1.8470   -4.3190    1.3420 C.2     7  LEU7        0.2406
     80  O         -1.1440   -5.2480    1.7420 O.2     7  LEU7       -0.2733
     81  N         -2.7530   -4.4810    0.3600 N.am    8  LYS8       -0.2970
     82  H         -3.3210   -3.6750    0.0970 H       8  LYS8        0.1499
     83  CA        -3.0240   -5.7910   -0.2690 C.3     8  LYS8        0.1486
     84  CB        -4.2240   -5.6970   -1.2320 C.3     8  LYS8        0.0289
     85  CG        -3.9300   -5.0090   -2.5770 C.3     8  LYS8        0.0000
     86  CD        -3.6820   -5.9860   -3.7360 C.3     8  LYS8       -0.0238
     87  CE        -3.4940   -5.1990   -5.0390 C.3     8  LYS8       -0.0862
     88  NZ        -4.5630   -5.4830   -6.0230 N.4     8  LYS8        0.3804
     89  HZ1       -4.6210   -6.4740   -6.2110 H       8  LYS8       -0.0894
     90  HZ2       -5.4420   -5.1240   -5.6570 H       8  LYS8       -0.0894
     91  HZ3       -4.3820   -4.9830   -6.8810 H       8  LYS8       -0.0894
     92  C         -1.7960   -6.4270   -0.9370 C.2     8  LYS8        0.2406
     93  O         -1.7190   -7.6480   -1.0300 O.2     8  LYS8       -0.2733
     94  N         -0.8280   -5.6070   -1.3550 N.am    9  ASP9       -0.2966
     95  H         -1.0100   -4.6160   -1.2910 H       9  ASP9        0.1499
     96  CA         0.4660   -6.0160   -1.9050 C.3     9  ASP9        0.1599
     97  CB         1.0330   -4.8390   -2.7240 C.3     9  ASP9        0.1429
     98  CG         0.6720   -4.9060   -4.2100 C.2     9  ASP9        0.3671
     99  OD1       -0.5320   -5.0510   -4.5220 O.co2   9  ASP9       -0.2456
    100  OD2        1.6270   -4.8150   -5.0170 O.co2   9  ASP9       -0.2456
    101  C          1.4810   -6.4640   -0.8320 C.2     9  ASP9        0.2413
    102  O          2.5450   -6.9710   -1.1940 O.2     9  ASP9       -0.2733
    103  N          1.1850   -6.2780    0.4640 N.am   10  GLY10      -0.2953
    104  H          0.2650   -5.9080    0.6930 H      10  GLY10       0.1499
    105  CA         2.0600   -6.6180    1.5930 C.3    10  GLY10       0.1757
    106  C          2.6280   -5.4120    2.3530 C.2    10  GLY10       0.2429
    107  O          3.4960   -5.5940    3.2080 O.2    10  GLY10      -0.2732
    108  N          2.1720   -4.1870    2.0550 N.am   11  GLY11      -0.2952
    109  H          1.4810   -4.0890    1.3190 H      11  GLY11       0.1499
    110  CA         2.6260   -2.9670    2.7230 C.3    11  GLY11       0.1759
    111  C          4.1570   -2.8020    2.6540 C.2    11  GLY11       0.2460
    112  O          4.7100   -2.8290    1.5510 O.2    11  GLY11      -0.2730
    113  N          4.8710   -2.6510    3.7940 N.am   12  PRO12      -0.2716
    114  CD         4.3620   -2.6150    5.1600 C.3    12  PRO12       0.0939
    115  CA         6.3330   -2.5330    3.8060 C.3    12  PRO12       0.1518
    116  CB         6.7400   -2.3870    5.2790 C.3    12  PRO12       0.0310
    117  CG         5.4600   -1.9520    5.9870 C.3    12  PRO12       0.0237
    118  C          7.0580   -3.7290    3.1650 C.2    12  PRO12       0.2409
    119  O          8.1390   -3.5620    2.6010 O.2    12  PRO12      -0.2733
    120  N          6.4630   -4.9290    3.2050 N.am   13  SER13      -0.2950
    121  H          5.5350   -4.9990    3.6130 H      13  SER13       0.1499
    122  CA         7.0490   -6.1790    2.7040 C.3    13  SER13       0.1782
    123  CB         6.4580   -7.3710    3.4720 C.3    13  SER13       0.1660
    124  OG         6.7630   -7.2640    4.8500 O.3    13  SER13      -0.3798
    125  HG         7.7070   -7.3940    4.9700 H      13  SER13       0.2105
    126  C          6.8970   -6.3690    1.1850 C.2    13  SER13       0.2432
    127  O          7.0250   -7.4880    0.6970 O.2    13  SER13      -0.2732
    128  N          6.6370   -5.2900    0.4340 N.am   14  SER14      -0.2950
    129  H          6.5090   -4.4150    0.9300 H      14  SER14       0.1499
    130  CA         6.3890   -5.3150   -1.0150 C.3    14  SER14       0.1782
    131  CB         4.9140   -4.9930   -1.2650 C.3    14  SER14       0.1660
    132  OG         4.4310   -5.7430   -2.3580 O.3    14  SER14      -0.3798
    133  HG         3.7140   -6.3240   -1.9870 H      14  SER14       0.2105
    134  C          7.3320   -4.4050   -1.8230 C.2    14  SER14       0.2432
    135  O          7.0820   -4.1230   -2.9930 O.2    14  SER14      -0.2732
    136  N          8.4190   -3.9200   -1.2020 N.am   15  GLY15      -0.2952
    137  H          8.5730   -4.2100   -0.2460 H      15  GLY15       0.1499
    138  CA         9.4510   -3.1160   -1.8700 C.3    15  GLY15       0.1757
    139  C          8.9840   -1.7250   -2.3160 C.2    15  GLY15       0.2428
    140  O          9.5390   -1.1770   -3.2670 O.2    15  GLY15      -0.2732
    141  N          7.9560   -1.1640   -1.6600 N.am   16  ARG16      -0.2969
    142  H          7.5790   -1.6760   -0.8740 H      16  ARG16       0.1499
    143  CA         7.2890    0.0840   -2.0540 C.3    16  ARG16       0.1489
    144  CB         6.1100   -0.2430   -2.9940 C.3    16  ARG16       0.0325
    145  CG         5.0460   -1.1710   -2.3780 C.3    16  ARG16       0.0450
    146  CD         3.9230   -1.5920   -3.3380 C.3    16  ARG16       0.1739
    147  NE         4.2510   -2.8110   -4.1000 N.pl3  16  ARG16      -0.2651
    148  HE         3.9630   -3.6940   -3.6980 H      16  ARG16       0.2586
    149  CZ         4.8590   -2.9140   -5.2740 C.cat  16  ARG16       0.3417
    150  NH1        5.2890   -1.8640   -5.9370 N.pl3  16  ARG16      -0.2918
    151 HH11        5.1500   -0.9620   -5.5210 H      16  ARG16       0.2545
    152 HH12        5.7610   -1.9620   -6.8150 H      16  ARG16       0.2545
    153  NH2        5.0350   -4.0950   -5.8090 N.pl3  16  ARG16      -0.2918
    154 HH21        4.6490   -4.8940   -5.3270 H      16  ARG16       0.2545
    155 HH22        5.5080   -4.2050   -6.6840 H      16  ARG16       0.2545
    156  C          6.8550    0.9160   -0.8290 C.2    16  ARG16       0.2438
    157  O          6.2220    0.3660    0.0760 O.2    16  ARG16      -0.2731
    158  N          7.1560    2.2300   -0.7800 N.am   17  PRO17      -0.2717
    159  CD         7.8200    3.0100   -1.8160 C.3    17  PRO17       0.0939
    160  CA         6.7820    3.0880    0.3450 C.3    17  PRO17       0.1521
    161  CB         7.5540    4.3940    0.1190 C.3    17  PRO17       0.0310
    162  CG         7.6770    4.4740   -1.4010 C.3    17  PRO17       0.0237
    163  C          5.2610    3.3310    0.3950 C.2    17  PRO17       0.2440
    164  O          4.5860    3.1650   -0.6240 O.2    17  PRO17      -0.2731
    165  N          4.7100    3.7390    1.5550 N.am   18  PRO18      -0.2717
    166  CD         5.3930    3.9490    2.8230 C.3    18  PRO18       0.0939
    167  CA         3.2870    4.0310    1.6860 C.3    18  PRO18       0.1521
    168  CB         3.0350    4.1900    3.1870 C.3    18  PRO18       0.0310
    169  CG         4.3850    4.6550    3.7290 C.3    18  PRO18       0.0237
    170  C          2.9010    5.3050    0.9130 C.2    18  PRO18       0.2440
    171  O          3.6840    6.2560    0.8710 O.2    18  PRO18      -0.2731
    172  N          1.6880    5.3600    0.3360 N.am   19  PRO19      -0.2717
    173  CD         0.7160    4.2750    0.2720 C.3    19  PRO19       0.0939
    174  CA         1.1850    6.5430   -0.3530 C.3    19  PRO19       0.1518
    175  CB         0.0480    6.0140   -1.2290 C.3    19  PRO19       0.0310
    176  CG        -0.5190    4.8520   -0.4120 C.3    19  PRO19       0.0237
    177  C          0.7150    7.6070    0.6550 C.2    19  PRO19       0.2409
    178  O         -0.1240    7.3240    1.5130 O.2    19  PRO19      -0.2733
    179  N          1.2710    8.8220    0.5490 N.am   20  SER20      -0.2960
    180  H          1.9690    8.9610   -0.1650 H      20  SER20       0.1499
    181  CA         0.8520   10.0270    1.2850 C.3    20  SER20       0.1665
    182  CB         1.9720   11.0710    1.2840 C.3    20  SER20       0.1647
    183  OG         3.1200   10.5410    1.9110 O.3    20  SER20      -0.3798
    184  HG         2.8310   10.0400    2.6760 H      20  SER20       0.2105
    185  C         -0.4060   10.6570    0.6830 C.2    20  SER20       0.2292
    186  O         -0.3870   10.9160   -0.5400 O.2    20  SER20      -0.2864
@<TRIPOS>BOND
     1    91    88    1
     2   152   150    1
     3   155   153    1
     4    52    51    1
     5    53    51    1
     6    89    88    1
     7    51    49   am
     8    88    90    1
     9    88    87    1
    10   150   151    1
    11   150   149    2
    12   153   154    1
    13   153   149    1
    14    49    50    2
    15    49    48    1
    16    48    47    1
    17   149   147    1
    18    87    86    1
    19   100    98   ar
    20    99    98   ar
    21     8     7    1
    22    98    97    1
    23   147   148    1
    24   147   146    1
    25    47    46    1
    26    86    85    1
    27     7     9    1
    28     7     5   am
    29   146   145    1
    30   140   139    2
    31   144   145    1
    32   144   143    1
    33   135   134    2
    34     4     5    1
    35     4     3    1
    36    55    54    2
    37    46    54    1
    38    46    44    1
    39    97    96    1
    40    15    14    1
    41    15    16    1
    42     5     6    2
    43    85    84    1
    44    14    12    1
    45    14    19    1
    46    13    12    1
    47    54    56   am
    48   132   133    1
    49   132   131    1
    50   139   138    1
    51   139   141   am
    52    12    10   am
    53    18    16    1
    54   143   141    1
    55   143   156    1
    56    96    94    1
    57    96   101    1
    58    10    11    2
    59    10     3    1
    60   138   136    1
    61   134   136   am
    62   134   130    1
    63   159   162    1
    64   159   158    1
    65    45    44    1
    66    20    19    2
    67   141   142    1
    68    44    42   am
    69     3     1    1
    70    56    57    1
    71    56    58    1
    72    16    17    1
    73    19    21   am
    74   162   161    1
    75    94    95    1
    76    94    92   am
    77   131   130    1
    78    84    83    1
    79   175   176    1
    80   175   174    1
    81   136   137    1
    82   102   101    2
    83    93    92    2
    84   130   128    1
    85    58    59    1
    86    58    70    1
    87    92    83    1
    88   101   103   am
    89   156   158   am
    90   156   157    2
    91   158   160    1
    92   164   163    2
    93     1     2    1
    94   186   185    2
    95    64    60   ar
    96    64    65   ar
    97    42    43    2
    98    42    37    1
    99    59    60    1
   100   176   173    1
   101   174   172    1
   102   174   177    1
   103    83    81    1
   104   180   179    1
   105    21    22    1
   106    21    23    1
   107    71    70    2
   108    70    72   am
   109    82    81    1
   110   161   160    1
   111    66    65    1
   112    60    61   ar
   113   173   172    1
   114    36    35    1
   115   172   170   am
   116    38    39    1
   117    38    37    1
   118    38    40    1
   119   160   163    1
   120    81    79   am
   121   163   165   am
   122    65    62   ar
   123   128   129    1
   124   128   126   am
   125   103   104    1
   126   103   105    1
   127   179   177   am
   128   179   181    1
   129    37    35    1
   130   177   178    2
   131   185   181    1
   132    35    33   am
   133   127   126    2
   134   171   170    2
   135   170   167    1
   136    72    73    1
   137    72    74    1
   138    23    33    1
   139    23    24    1
   140    33    34    2
   141   126   122    1
   142    40    41    1
   143   182   181    1
   144   182   183    1
   145   109   108    1
   146    79    80    2
   147    79    74    1
   148   112   111    2
   149   165   167    1
   150   165   166    1
   151   105   106    1
   152    61    62   ar
   153    61    63   ar
   154   167   168    1
   155    62    67   ar
   156   183   184    1
   157    74    75    1
   158   108   106   am
   159   108   110    1
   160    24    25    1
   161   106   107    2
   162   119   118    2
   163   111   110    1
   164   111   113   am
   165   122   120    1
   166   122   123    1
   167    63    68   ar
   168   166   169    1
   169    67    69   ar
   170    75    76    1
   171   118   120   am
   172   118   115    1
   173   168   169    1
   174   120   121    1
   175    25    27   ar
   176    25    26   ar
   177    27    29   ar
   178   123   124    1
   179   113   115    1
   180   113   114    1
   181   115   116    1
   182    68    69   ar
   183    76    78    1
   184    76    77    1
   185    26    28   ar
   186    29    30   ar
   187   124   125    1
   188    28    30   ar
   189    30    31    1
   190   114   117    1
   191   116   117    1
   192    32    31    1
