@<TRIPOS>MOLECULE
/home/conradli/SAC-for-H-Bond-Learning/data/1M4F/1m4f_pnon.pdb
 226 234 0 0 0
SMALL
GASTEIGER

@<TRIPOS>ATOM
      1  N         -6.1200   -5.8130   -1.1330 N.3     1  ASP1       -0.2376
      2  H         -6.3510   -5.2710   -0.2760 H       1  ASP1        0.1418
      3  CA        -7.2290   -6.7470   -1.4590 C.3     1  ASP1        0.1561
      4  CB        -7.2490   -7.8680   -0.4180 C.3     1  ASP1        0.1403
      5  CG        -7.4790   -7.3520    0.9890 C.2     1  ASP1        0.3668
      6  OD1       -6.6520   -6.5480    1.4700 O.co2   1  ASP1       -0.2456
      7  OD2       -8.4860   -7.7500    1.6100 O.co2   1  ASP1       -0.2456
      8  C         -8.5710   -6.0230   -1.4810 C.2     1  ASP1        0.2389
      9  O         -9.4150   -6.2870   -2.3370 O.2     1  ASP1       -0.2736
     10  N         -8.7620   -5.1070   -0.5350 N.am    2  THR2       -0.2953
     11  H         -8.0530   -4.9370    0.1180 H       2  THR2        0.1499
     12  CA        -9.9990   -4.3470   -0.4500 C.3     2  THR2        0.1757
     13  CB       -10.0330   -3.4630    0.8110 C.3     2  THR2        0.1373
     14  OG1       -9.8530   -4.2710    1.9810 O.3     2  THR2       -0.3823
     15  HG1      -10.7070   -4.4450    2.3840 H       2  THR2        0.2104
     16  CG2      -11.3520   -2.7100    0.9100 C.3     2  THR2        0.0340
     17  C        -10.1810   -3.4710   -1.6840 C.2     2  THR2        0.2431
     18  O         -9.2260   -2.8730   -2.1820 O.2     2  THR2       -0.2732
     19  N        -11.4110   -3.4080   -2.1760 N.am    3  HIS3       -0.2966
     20  H        -12.1260   -3.9130   -1.7350 H       3  HIS3        0.1499
     21  CA       -11.7280   -2.6130   -3.3550 C.3     3  HIS3        0.1545
     22  CB       -13.1860   -2.8340   -3.7540 C.3     3  HIS3        0.0741
     23  CG       -13.5780   -2.1310   -5.0170 C.ar    3  HIS3        0.0563
     24  ND1      -12.9790   -2.3810   -6.2340 N.ar    3  HIS3       -0.3381
     25  HD1      -12.2570   -3.0240   -6.3950 H       3  HIS3        0.1672
     26  CD2      -14.5160   -1.1820   -5.2500 C.ar    3  HIS3        0.1131
     27  NE2      -14.4660   -0.8820   -6.5890 N.ar    3  HIS3       -0.2229
     28  CE1      -13.5310   -1.6170   -7.1600 C.ar    3  HIS3        0.1748
     29  C        -11.4790   -1.1300   -3.1020 C.2     3  HIS3        0.2410
     30  O        -11.0030   -0.4120   -3.9820 O.2     3  HIS3       -0.2733
     31  N        -11.8100   -0.6750   -1.8970 N.am    4  PHE4       -0.2967
     32  H        -12.1870   -1.2970   -1.2380 H       4  PHE4        0.1499
     33  CA       -11.6300    0.7280   -1.5320 C.3     4  PHE4        0.1532
     34  CB       -12.8990    1.5260   -1.8540 C.3     4  PHE4        0.0553
     35  CG       -12.7860    3.0010   -1.5680 C.ar    4  PHE4       -0.0200
     36  CD1      -11.6530    3.7110   -1.9350 C.ar    4  PHE4       -0.0042
     37  CD2      -13.8160    3.6730   -0.9300 C.ar    4  PHE4       -0.0042
     38  CE1      -11.5500    5.0640   -1.6700 C.ar    4  PHE4       -0.0003
     39  CE2      -13.7180    5.0260   -0.6630 C.ar    4  PHE4       -0.0003
     40  CZ       -12.5840    5.7220   -1.0340 C.ar    4  PHE4       -0.0000
     41  C        -11.2680    0.8740   -0.0520 C.2     4  PHE4        0.2442
     42  O        -12.0180    1.4630    0.7270 O.2     4  PHE4       -0.2731
     43  N        -10.1050    0.3380    0.3590 N.am    5  PRO5       -0.2717
     44  CD        -9.1420   -0.3790   -0.4970 C.3     5  PRO5        0.0939
     45  CA        -9.6520    0.4210    1.7500 C.3     5  PRO5        0.1518
     46  CB        -8.4880   -0.5700    1.8000 C.3     5  PRO5        0.0310
     47  CG        -7.9620   -0.6080    0.4060 C.3     5  PRO5        0.0237
     48  C         -9.1810    1.8280    2.1120 C.2     5  PRO5        0.2409
     49  O         -9.7060    2.8170    1.5990 O.2     5  PRO5       -0.2733
     50  N         -8.1850    1.9140    2.9890 N.am    6  ILE6       -0.2970
     51  H         -7.7980    1.0940    3.3590 H       6  ILE6        0.1499
     52  CA        -7.6440    3.2020    3.4040 C.3     6  ILE6        0.1485
     53  CB        -7.0070    3.1230    4.8060 C.3     6  ILE6        0.0269
     54  CG2       -8.0810    2.8850    5.8580 C.3     6  ILE6        0.0022
     55  CG1       -5.9460    2.0190    4.8530 C.3     6  ILE6        0.0021
     56  CD        -5.2470    1.9020    6.1920 C.3     6  ILE6        0.0001
     57  C         -6.6110    3.7050    2.4020 C.2     6  ILE6        0.2407
     58  O         -6.5370    4.9020    2.1190 O.2     6  ILE6       -0.2733
     59  N         -5.8170    2.7790    1.8700 N.am    7  CYS7       -0.2963
     60  H         -5.9310    1.8440    2.1390 H       7  CYS7        0.1499
     61  CA        -4.7850    3.1140    0.8960 C.3     7  CYS7        0.1603
     62  CB        -5.4160    3.6140   -0.4050 C.3     7  CYS7        0.0976
     63  SG        -6.2750    2.3250   -1.3650 S.3     7  CYS7       -0.0798
     64  C         -3.8200    4.1600    1.4430 C.2     7  CYS7        0.2416
     65  O         -3.4050    5.0700    0.7240 O.2     7  CYS7       -0.2733
     66  N         -3.4540    4.0210    2.7130 N.am    8  ILE8       -0.2970
     67  H         -3.8090    3.2710    3.2370 H       8  ILE8        0.1499
     68  CA        -2.5230    4.9550    3.3340 C.3     8  ILE8        0.1485
     69  CB        -2.3270    4.6530    4.8340 C.3     8  ILE8        0.0269
     70  CG2       -3.6180    4.9200    5.5970 C.3     8  ILE8        0.0022
     71  CG1       -1.8680    3.2050    5.0360 C.3     8  ILE8        0.0021
     72  CD        -1.5520    2.8610    6.4760 C.3     8  ILE8        0.0001
     73  C         -1.1710    4.9060    2.6270 C.2     8  ILE8        0.2406
     74  O         -0.5910    3.8350    2.4560 O.2     8  ILE8       -0.2733
     75  N         -0.6780    6.0680    2.2090 N.am    9  PHE9       -0.2967
     76  H         -1.1890    6.8900    2.3660 H       9  PHE9        0.1499
     77  CA         0.6000    6.1460    1.5080 C.3     9  PHE9        0.1530
     78  CB         0.9490    7.6040    1.1970 C.3     9  PHE9        0.0553
     79  CG         2.1330    7.7610    0.2840 C.ar    9  PHE9       -0.0200
     80  CD1        2.2460    6.9940   -0.8660 C.ar    9  PHE9       -0.0042
     81  CD2        3.1300    8.6790    0.5720 C.ar    9  PHE9       -0.0042
     82  CE1        3.3300    7.1390   -1.7100 C.ar    9  PHE9       -0.0003
     83  CE2        4.2170    8.8290   -0.2690 C.ar    9  PHE9       -0.0003
     84  CZ         4.3170    8.0580   -1.4110 C.ar    9  PHE9       -0.0000
     85  C          1.7120    5.5030    2.3310 C.2     9  PHE9        0.2410
     86  O          1.7760    5.6770    3.5480 O.2     9  PHE9       -0.2733
     87  N          2.5820    4.7510    1.6600 N.am   10  CYS10      -0.2963
     88  H          2.4760    4.6440    0.6910 H      10  CYS10       0.1499
     89  CA         3.6860    4.0750    2.3340 C.3    10  CYS10       0.1603
     90  CB         3.1770    2.7930    2.9990 C.3    10  CYS10       0.0976
     91  SG         2.4860    1.5830    1.8220 S.3    10  CYS10      -0.0798
     92  C          4.8000    3.7340    1.3470 C.2    10  CYS10       0.2416
     93  O          4.6470    2.8570    0.5000 O.2    10  CYS10      -0.2733
     94  N          5.9260    4.4270    1.4600 N.am   11  CYS11      -0.2963
     95  H          6.0030    5.1150    2.1540 H      11  CYS11       0.1499
     96  CA         7.0510    4.1790    0.5680 C.3    11  CYS11       0.1603
     97  CB         8.0280    5.3560    0.5860 C.3    11  CYS11       0.0976
     98  SG         7.4760    6.7950   -0.3840 S.3    11  CYS11      -0.0798
     99  C          7.7790    2.8910    0.9330 C.2    11  CYS11       0.2416
    100  O          8.2270    2.7190    2.0670 O.2    11  CYS11      -0.2733
    101  N          7.9080    1.9970   -0.0440 N.am   12  GLY12      -0.2953
    102  H          7.5410    2.1980   -0.9290 H      12  GLY12       0.1499
    103  CA         8.6020    0.7430    0.1840 C.3    12  GLY12       0.1757
    104  C         10.0600    0.9800    0.5110 C.2    12  GLY12       0.2429
    105  O         10.8860    1.1310   -0.3980 O.2    12  GLY12      -0.2732
    106  N         10.3440    1.0500    1.8140 N.am   13  CYS13      -0.2962
    107  H          9.6100    0.9450    2.4540 H      13  CYS13       0.1499
    108  CA        11.6860    1.3180    2.3400 C.3    13  CYS13       0.1603
    109  CB        11.6210    1.5300    3.8620 C.3    13  CYS13       0.0976
    110  SG        11.2860   -0.0080    4.8360 S.3    13  CYS13      -0.0798
    111  C         12.6640    0.1900    2.1510 C.2    13  CYS13       0.2416
    112  O         13.8310    0.4000    1.8180 O.2    13  CYS13      -0.2733
    113  N         12.2190   -0.9790    2.5380 N.am   14  CYS14      -0.2963
    114  H         11.3150   -1.0490    2.9070 H      14  CYS14       0.1499
    115  CA        13.0850   -2.1160    2.5970 C.3    14  CYS14       0.1603
    116  CB        13.1150   -2.4720    4.0720 C.3    14  CYS14       0.0976
    117  SG        13.1200   -0.9640    5.1390 S.3    14  CYS14      -0.0798
    118  C         12.6460   -3.2740    1.7100 C.2    14  CYS14       0.2416
    119  O         13.4190   -3.7190    0.8610 O.2    14  CYS14      -0.2733
    120  N         11.4160   -3.7530    1.8770 N.am   15  HIS15      -0.2967
    121  H         10.8270   -3.3600    2.5530 H      15  HIS15       0.1499
    122  CA        10.9320   -4.8420    1.0350 C.3    15  HIS15       0.1545
    123  CB         9.4780   -5.1800    1.3690 C.3    15  HIS15       0.0741
    124  CG         9.2760   -5.5960    2.7930 C.ar   15  HIS15       0.0563
    125  ND1        9.9150   -6.6810    3.3560 N.ar   15  HIS15      -0.3381
    126  HD1       10.5470   -7.2740    2.8980 H      15  HIS15       0.1672
    127  CD2        8.5030   -5.0680    3.7710 C.ar   15  HIS15       0.1131
    128  NE2        8.6870   -5.8360    4.8950 N.ar   15  HIS15      -0.2229
    129  CE1        9.5420   -6.8030    4.6180 C.ar   15  HIS15       0.1748
    130  C         11.0640   -4.4080   -0.4170 C.2    15  HIS15       0.2410
    131  O         12.0820   -4.6610   -1.0620 O.2    15  HIS15      -0.2733
    132  N         10.0620   -3.6920   -0.9050 N.am   16  ARG16      -0.2970
    133  H          9.3010   -3.4790   -0.3270 H      16  ARG16       0.1499
    134  CA        10.1070   -3.1500   -2.2510 C.3    16  ARG16       0.1487
    135  CB         8.7070   -3.0830   -2.8680 C.3    16  ARG16       0.0325
    136  CG         8.2340   -4.3930   -3.4700 C.3    16  ARG16       0.0450
    137  CD         8.1190   -5.4890   -2.4250 C.3    16  ARG16       0.1739
    138  NE         7.7360   -6.7680   -3.0180 N.pl3  16  ARG16      -0.2651
    139  HE         8.4010   -7.4860   -3.0090 H      16  ARG16       0.2586
    140  CZ         6.5510   -7.0010   -3.5750 C.cat  16  ARG16       0.3417
    141  NH1        5.6250   -6.0530   -3.5980 N.pl3  16  ARG16      -0.2918
    142 HH11        5.8160   -5.1570   -3.1970 H      16  ARG16       0.2545
    143 HH12        4.7350   -6.2340   -4.0160 H      16  ARG16       0.2545
    144  NH2        6.2920   -8.1880   -4.1080 N.pl3  16  ARG16      -0.2918
    145 HH21        6.9870   -8.9070   -4.0890 H      16  ARG16       0.2545
    146 HH22        5.4020   -8.3630   -4.5290 H      16  ARG16       0.2545
    147  C         10.7010   -1.7540   -2.1890 C.2    16  ARG16       0.2407
    148  O         10.1470   -0.8930   -1.5240 O.2    16  ARG16      -0.2733
    149  N         11.8180   -1.5260   -2.8710 N.am   17  SER17      -0.2950
    150  H         12.2240   -2.2530   -3.3880 H      17  SER17       0.1499
    151  CA        12.4500   -0.2060   -2.8660 C.3    17  SER17       0.1782
    152  CB        13.8970   -0.3030   -3.3550 C.3    17  SER17       0.1660
    153  OG        14.6640   -1.1460   -2.5140 O.3    17  SER17      -0.3798
    154  HG        15.5410   -0.7720   -2.4000 H      17  SER17       0.2105
    155  C         11.6580    0.7510   -3.7510 C.2    17  SER17       0.2432
    156  O         12.2080    1.3740   -4.6600 O.2    17  SER17      -0.2732
    157  N         10.3550    0.8400   -3.4950 N.am   18  LYS18      -0.2969
    158  H          9.9770    0.3140   -2.7560 H      18  LYS18       0.1499
    159  CA         9.4790    1.6980   -4.2890 C.3    18  LYS18       0.1486
    160  CB         8.9730    0.9260   -5.5120 C.3    18  LYS18       0.0289
    161  CG         8.1410   -0.2990   -5.1590 C.3    18  LYS18       0.0000
    162  CD         7.8550   -1.1560   -6.3830 C.3    18  LYS18      -0.0238
    163  CE         6.8980   -2.2940   -6.0590 C.3    18  LYS18      -0.0862
    164  NZ         5.5750   -1.7930   -5.5940 N.4    18  LYS18       0.3804
    165  HZ1        5.3910   -0.8490   -5.9880 H      18  LYS18      -0.0894
    166  HZ2        5.5600   -1.7330   -4.5560 H      18  LYS18      -0.0894
    167  HZ3        4.8210   -2.4400   -5.9020 H      18  LYS18      -0.0894
    168  C          8.2960    2.2170   -3.4750 C.2    18  LYS18       0.2407
    169  O          7.6930    1.4730   -2.7030 O.2    18  LYS18      -0.2733
    170  N          7.9500    3.4870   -3.6730 N.am   19  CYS19      -0.2963
    171  H          8.4530    4.0260   -4.3180 H      19  CYS19       0.1499
    172  CA         6.8150    4.0840   -2.9740 C.3    19  CYS19       0.1603
    173  CB         6.8310    5.6090   -3.1100 C.3    19  CYS19       0.0976
    174  SG         8.2120    6.4280   -2.2450 S.3    19  CYS19      -0.0798
    175  C          5.5010    3.5250   -3.5130 C.2    19  CYS19       0.2416
    176  O          5.3620    3.2920   -4.7130 O.2    19  CYS19      -0.2733
    177  N          4.5420    3.3050   -2.6180 N.am   20  GLY20      -0.2953
    178  H          4.7100    3.5050   -1.6740 H      20  GLY20       0.1499
    179  CA         3.2550    2.7670   -3.0290 C.3    20  GLY20       0.1757
    180  C          2.2060    2.8580   -1.9370 C.2    20  GLY20       0.2428
    181  O          2.5290    2.8200   -0.7530 O.2    20  GLY20      -0.2732
    182  N          0.9460    2.9890   -2.3360 N.am   21  MET21      -0.2969
    183  H          0.7500    3.0210   -3.2950 H      21  MET21       0.1499
    184  CA        -0.1520    3.0940   -1.3810 C.3    21  MET21       0.1494
    185  CB        -1.4030    3.6260   -2.0830 C.3    21  MET21       0.0406
    186  CG        -1.1630    4.9270   -2.8360 C.3    21  MET21       0.0598
    187  SD        -2.6470    5.5540   -3.6470 S.3    21  MET21      -0.1393
    188  CE        -3.6730    5.9400   -2.2320 C.3    21  MET21       0.0692
    189  C         -0.4480    1.7430   -0.7240 C.2    21  MET21       0.2407
    190  O         -0.6370    0.7370   -1.4080 O.2    21  MET21      -0.2733
    191  N         -0.4900    1.7370    0.6080 N.am   22  CYS22      -0.2963
    192  H         -0.3330    2.5740    1.0890 H      22  CYS22       0.1499
    193  CA        -0.7690    0.5210    1.3740 C.3    22  CYS22       0.1603
    194  CB        -0.2290    0.6470    2.8050 C.3    22  CYS22       0.0976
    195  SG         1.5370    0.2310    2.9900 S.3    22  CYS22      -0.0798
    196  C         -2.2650    0.2130    1.4210 C.2    22  CYS22       0.2416
    197  O         -2.8420    0.0860    2.5020 O.2    22  CYS22      -0.2733
    198  N         -2.8920    0.0900    0.2540 N.am   23  CYS23      -0.2963
    199  H         -2.3870    0.1970   -0.5780 H      23  CYS23       0.1499
    200  CA        -4.3200   -0.2090    0.1950 C.3    23  CYS23       0.1603
    201  CB        -4.7900   -0.3250   -1.2570 C.3    23  CYS23       0.0976
    202  SG        -4.7600    1.2440   -2.1850 S.3    23  CYS23      -0.0798
    203  C         -4.6380   -1.5000    0.9460 C.2    23  CYS23       0.2416
    204  O         -5.4800   -1.5130    1.8430 O.2    23  CYS23      -0.2733
    205  N         -3.9560   -2.5820    0.5790 N.am   24  LYS24      -0.2970
    206  H         -3.2950   -2.5110   -0.1400 H      24  LYS24       0.1499
    207  CA        -4.1690   -3.8730    1.2260 C.3    24  LYS24       0.1486
    208  CB        -3.5310   -4.9930    0.4000 C.3    24  LYS24       0.0289
    209  CG        -2.0430   -4.8020    0.1560 C.3    24  LYS24       0.0000
    210  CD        -1.4500   -5.9820   -0.5970 C.3    24  LYS24      -0.0238
    211  CE         0.0360   -5.7930   -0.8580 C.3    24  LYS24      -0.0862
    212  NZ         0.3070   -4.5850   -1.6850 N.4    24  LYS24       0.3804
    213  HZ1        1.1350   -4.7480   -2.2940 H      24  LYS24      -0.0894
    214  HZ2        0.4970   -3.7670   -1.0730 H      24  LYS24      -0.0894
    215  HZ3       -0.5150   -4.3720   -2.2850 H      24  LYS24      -0.0894
    216  C         -3.6040   -3.8720    2.6470 C.2    24  LYS24       0.2407
    217  O         -3.5970   -2.8410    3.3190 O.2    24  LYS24      -0.2733
    218  N         -3.1280   -5.0330    3.0980 N.am   25  THR25      -0.2961
    219  H         -3.1600   -5.8190    2.5150 H      25  THR25       0.1499
    220  CA        -2.5620   -5.1660    4.4360 C.3    25  THR25       0.1640
    221  CB        -3.6580   -5.1410    5.5230 C.3    25  THR25       0.1360
    222  OG1       -4.3780   -3.9040    5.4720 O.3    25  THR25      -0.3823
    223  HG1       -5.3200   -4.0780    5.5240 H      25  THR25       0.2104
    224  CG2       -3.0550   -5.3200    6.9090 C.3    25  THR25       0.0340
    225  C         -1.7720   -6.4660    4.5630 C.2    25  THR25       0.2292
    226  O         -2.3210   -7.5280    4.2000 O.2    25  THR25      -0.2864
@<TRIPOS>BOND
     1    28    27   ar
     2    28    24   ar
     3    27    26   ar
     4    25    24    1
     5   162   163    1
     6   162   161    1
     7    24    23   ar
     8   163   164    1
     9   165   164    1
    10   167   164    1
    11   164   166    1
    12   160   161    1
    13   160   159    1
    14    26    23   ar
    15    23    22    1
    16   176   175    2
    17   156   155    2
    18   146   144    1
    19   171   170    1
    20   159   157    1
    21   159   168    1
    22   144   145    1
    23   144   140    2
    24   143   141    1
    25    30    29    2
    26    22    21    1
    27   155   157   am
    28   155   151    1
    29   170   168   am
    30   170   172    1
    31   187   186    1
    32   187   188    1
    33   141   140    1
    34   141   142    1
    35   140   138    1
    36   175   172    1
    37   175   177   am
    38   157   158    1
    39   168   169    2
    40   136   135    1
    41   136   137    1
    42   150   149    1
    43    21    29    1
    44    21    19    1
    45   152   151    1
    46   152   153    1
    47   183   182    1
    48   173   172    1
    49   173   174    1
    50    29    31   am
    51   179   177    1
    52   179   180    1
    53   138   139    1
    54   138   137    1
    55   149   151    1
    56   149   147   am
    57   135   134    1
    58   186   185    1
    59   177   178    1
    60   153   154    1
    61     9     8    2
    62   182   180   am
    63   182   184    1
    64   213   212    1
    65   215   212    1
    66   134   147    1
    67   134   132    1
    68   174    98    1
    69   147   148    2
    70   202    63    1
    71   202   201    1
    72    18    17    2
    73    19    20    1
    74    19    17   am
    75   185   184    1
    76   180   181    2
    77    36    38   ar
    78    36    35   ar
    79    31    33    1
    80    31    32    1
    81    34    35    1
    82    34    33    1
    83    82    84   ar
    84    82    80   ar
    85   212   214    1
    86   212   211    1
    87    17    12    1
    88    38    40   ar
    89    35    37   ar
    90    33    41    1
    91     8     3    1
    92     8    10   am
    93     3     1    1
    94     3     4    1
    95    84    83   ar
    96   190   189    2
    97   184   189    1
    98    63    62    1
    99   201   200    1
   100     1     2    1
   101   131   130    2
   102    40    39   ar
   103    37    39   ar
   104   102   101    1
   105   132   130   am
   106   132   133    1
   107    80    79   ar
   108   211   210    1
   109   189   191   am
   110   210   209    1
   111   199   198    1
   112    10    12    1
   113    10    11    1
   114    44    43    1
   115    44    47    1
   116    12    13    1
   117     4     5    1
   118   130   122    1
   119    62    61    1
   120   105   104    2
   121    98    97    1
   122    83    81   ar
   123   206   205    1
   124    41    43   am
   125    41    42    2
   126   101   103    1
   127   101    99   am
   128   209   208    1
   129   103   104    1
   130   200   198    1
   131   200   203    1
   132   198   196   am
   133    79    81   ar
   134    79    78    1
   135    43    45    1
   136   208   207    1
   137    47    46    1
   138    93    92    2
   139   104   106   am
   140    96    97    1
   141    96    99    1
   142    96    94    1
   143   205   203   am
   144   205   207    1
   145   191   192    1
   146   191   193    1
   147    88    87    1
   148    65    64    2
   149    13    16    1
   150    13    14    1
   151   119   118    2
   152    61    64    1
   153    61    59    1
   154    99   100    2
   155   203   204    2
   156     5     6   ar
   157     5     7   ar
   158   122   123    1
   159   122   120    1
   160    78    77    1
   161   207   216    1
   162    92    94   am
   163    92    89    1
   164   123   124    1
   165   193   196    1
   166   193   194    1
   167   196   197    2
   168    64    66   am
   169    94    95    1
   170    77    75    1
   171    77    85    1
   172    49    48    2
   173    87    85   am
   174    87    89    1
   175   118   120   am
   176   118   115    1
   177    45    46    1
   178    45    48    1
   179   106   108    1
   180   106   107    1
   181   112   111    2
   182    91   195    1
   183    91    90    1
   184    59    60    1
   185    59    57   am
   186   120   121    1
   187    14    15    1
   188    48    50   am
   189    58    57    2
   190   111   108    1
   191   111   113   am
   192    75    76    1
   193    75    73   am
   194    85    86    2
   195    89    90    1
   196   108   109    1
   197    57    52    1
   198    74    73    2
   199   219   218    1
   200   113   115    1
   201   113   114    1
   202   115   116    1
   203    73    68    1
   204   216   218   am
   205   216   217    2
   206    66    67    1
   207    66    68    1
   208   124   125   ar
   209   124   127   ar
   210   194   195    1
   211   126   125    1
   212    50    51    1
   213    50    52    1
   214   218   220    1
   215    68    69    1
   216   125   129   ar
   217    52    53    1
   218   127   128   ar
   219   109   110    1
   220   116   117    1
   221   226   225    2
   222   220   225    1
   223   220   221    1
   224   129   128   ar
   225    53    55    1
   226    53    54    1
   227    69    71    1
   228    69    70    1
   229   110   117    1
   230    55    56    1
   231    71    72    1
   232   222   221    1
   233   222   223    1
   234   221   224    1
