@<TRIPOS>MOLECULE
/home/conradli/SAC-for-H-Bond-Learning/data/2JOF/2jof_pnon.pdb
 178 184 0 0 0
SMALL
GASTEIGER

@<TRIPOS>ATOM
      1  N         21.4640    6.5930   -4.0770 N.3     1  ASP1       -0.2376
      2  H         21.6150    6.3960   -5.0550 H       1  ASP1        0.1418
      3  CA        22.7460    6.8210   -3.3780 C.3     1  ASP1        0.1561
      4  CB        22.4840    7.3110   -1.9540 C.3     1  ASP1        0.1403
      5  CG        22.1460    8.7880   -2.0630 C.2     1  ASP1        0.3668
      6  OD1       21.1660    9.0400   -2.8000 O.co2   1  ASP1       -0.2456
      7  OD2       22.9390    9.5980   -1.5460 O.co2   1  ASP1       -0.2456
      8  C         23.6530    5.6060   -3.3630 C.2     1  ASP1        0.2389
      9  O         23.2410    4.5250   -2.9490 O.2     1  ASP1       -0.2736
     10  N         24.9080    5.8150   -3.7700 N.am    2  ALA2       -0.2972
     11  H         25.1800    6.7260   -4.1130 H       2  ALA2        0.1499
     12  CA        25.9680    4.8210   -3.6560 C.3     2  ALA2        0.1486
     13  CB        27.1900    5.3290   -4.4300 C.3     2  ALA2        0.0312
     14  C         26.3080    4.5040   -2.1880 C.2     2  ALA2        0.2406
     15  O         26.4850    3.3360   -1.8550 O.2     2  ALA2       -0.2733
     16  N         26.3570    5.5110   -1.2980 N.am    3  TYR3       -0.2967
     17  H         26.2230    6.4540   -1.6320 H       3  TYR3        0.1499
     18  CA        26.6910    5.3170    0.1230 C.3     3  TYR3        0.1530
     19  CB        26.8480    6.6730    0.8370 C.3     3  TYR3        0.0553
     20  CG        27.8460    6.6250    1.9840 C.ar    3  TYR3       -0.0198
     21  CD1       27.5660    5.8920    3.1550 C.ar    3  TYR3       -0.0011
     22  CD2       29.0900    7.2710    1.8530 C.ar    3  TYR3       -0.0011
     23  CE1       28.5480    5.7530    4.1540 C.ar    3  TYR3        0.0363
     24  CE2       30.0790    7.1320    2.8430 C.ar    3  TYR3        0.0363
     25  CZ        29.8150    6.3510    3.9890 C.ar    3  TYR3        0.1337
     26  OH        30.7760    6.1560    4.9310 O.3     3  TYR3       -0.5055
     27  HH        31.6350    6.4470    4.6220 H       3  TYR3        0.2922
     28  C         25.6620    4.4330    0.8470 C.2     3  TYR3        0.2410
     29  O         26.0230    3.5760    1.6550 O.2     3  TYR3       -0.2733
     30  N         24.3750    4.5990    0.5160 N.am    4  ALA4       -0.2970
     31  H         24.1470    5.3140   -0.1570 H       4  ALA4        0.1499
     32  CA        23.3050    3.7380    1.0100 C.3     4  ALA4        0.1486
     33  CB        21.9730    4.2120    0.4140 C.3     4  ALA4        0.0312
     34  C         23.5960    2.2640    0.6850 C.2     4  ALA4        0.2406
     35  O         23.5370    1.4090    1.5710 O.2     4  ALA4       -0.2733
     36  N         23.9560    1.9780   -0.5730 N.am    5  GLN5       -0.2970
     37  H         24.0110    2.7360   -1.2420 H       5  GLN5        0.1499
     38  CA        24.3240    0.6360   -1.0150 C.3     5  GLN5        0.1491
     39  CB        24.3540    0.5930   -2.5500 C.3     5  GLN5        0.0385
     40  CG        23.9880   -0.8020   -3.0900 C.3     5  GLN5        0.0870
     41  CD        23.2100   -0.7050   -4.3980 C.2     5  GLN5        0.2194
     42  OE1       23.7200   -0.9580   -5.4760 O.2     5  GLN5       -0.2753
     43  NE2       21.9480   -0.3140   -4.3450 N.am    5  GLN5       -0.3288
     44 HE21       21.4930   -0.0870   -3.4790 H       5  GLN5        0.1449
     45 HE22       21.4870   -0.2740   -5.2380 H       5  GLN5        0.1449
     46  C         25.6380    0.1570   -0.3780 C.2     5  GLN5        0.2407
     47  O         25.6930   -0.9630    0.1170 O.2     5  GLN5       -0.2733
     48  N         26.6570    1.0260   -0.2960 N.am    6  TRP6       -0.2967
     49  H         26.5310    1.9320   -0.7420 H       6  TRP6        0.1499
     50  CA        27.9390    0.7650    0.3700 C.3     6  TRP6        0.1530
     51  CB        28.7690    2.0600    0.4340 C.3     6  TRP6        0.0569
     52  CG        30.1760    1.8720    0.9020 C.ar    6  TRP6       -0.0017
     53  CD2       30.7440    2.0420    2.2390 C.ar    6  TRP6        0.0131
     54  CE2       32.1190    1.6640    2.1920 C.ar    6  TRP6        0.0563
     55  CE3       30.2480    2.4910    3.4820 C.ar    6  TRP6        0.0012
     56  CD1       31.2030    1.5070    0.1100 C.ar    6  TRP6        0.0681
     57  NE1       32.3350    1.3250    0.8760 N.ar    6  TRP6       -0.3523
     58  HE1       33.2200    0.9850    0.4880 H       6  TRP6        0.1660
     59  CZ2       32.9570    1.7100    3.3160 C.ar    6  TRP6        0.0170
     60  CZ3       31.0840    2.5670    4.6140 C.ar    6  TRP6        0.0001
     61  CH2       32.4340    2.1810    4.5320 C.ar    6  TRP6        0.0015
     62  C         27.7480    0.1500    1.7630 C.2     6  TRP6        0.2410
     63  O         28.3190   -0.9010    2.0560 O.2     6  TRP6       -0.2733
     64  N         26.8960    0.7680    2.5930 N.am    7  LEU7       -0.2970
     65  H         26.4780    1.6390    2.2740 H       7  LEU7        0.1499
     66  CA        26.5130    0.2230    3.8960 C.3     7  LEU7        0.1486
     67  CB        25.7020    1.2650    4.6850 C.3     7  LEU7        0.0290
     68  CG        26.5090    2.5170    5.0870 C.3     7  LEU7        0.0021
     69  CD1       25.5590    3.5810    5.6400 C.3     7  LEU7        0.0001
     70  CD2       27.5690    2.2120    6.1530 C.3     7  LEU7        0.0001
     71  C         25.7510   -1.1090    3.7770 C.2     7  LEU7        0.2406
     72  O         26.1020   -2.0470    4.4900 O.2     7  LEU7       -0.2733
     73  N         24.7540   -1.2220    2.8790 N.am    8  LYS8       -0.2970
     74  H         24.5700   -0.4180    2.2870 H       8  LYS8        0.1499
     75  CA        23.9830   -2.4650    2.6530 C.3     8  LYS8        0.1486
     76  CB        22.9330   -2.3000    1.5330 C.3     8  LYS8        0.0289
     77  CG        21.5150   -2.0360    2.0550 C.3     8  LYS8        0.0000
     78  CD        21.3460   -0.6120    2.5920 C.3     8  LYS8       -0.0238
     79  CE        19.9850   -0.4540    3.2700 C.3     8  LYS8       -0.0862
     80  NZ        19.9170    0.8190    4.0240 N.4     8  LYS8        0.3804
     81  HZ1       19.0040    0.9320    4.4460 H       8  LYS8       -0.0894
     82  HZ2       20.6160    0.8210    4.7560 H       8  LYS8       -0.0894
     83  HZ3       20.0960    1.6000    3.4080 H       8  LYS8       -0.0894
     84  C         24.8690   -3.6730    2.3420 C.2     8  LYS8        0.2406
     85  O         24.6360   -4.7410    2.9000 O.2     8  LYS8       -0.2733
     86  N         25.8770   -3.5120    1.4800 N.am    9  ASP9       -0.2966
     87  H         25.9390   -2.6220    0.9830 H       9  ASP9        0.1499
     88  CA        26.8330   -4.5780    1.1630 C.3     9  ASP9        0.1599
     89  CB        27.7010   -4.1470   -0.0310 C.3     9  ASP9        0.1429
     90  CG        26.9540   -4.1690   -1.3720 C.2     9  ASP9        0.3671
     91  OD1       26.2830   -3.1720   -1.7070 O.co2   9  ASP9       -0.2456
     92  OD2       27.1920   -5.1110   -2.1630 O.co2   9  ASP9       -0.2456
     93  C         27.7270   -4.9800    2.3570 C.2     9  ASP9        0.2413
     94  O         28.2980   -6.0670    2.3280 O.2     9  ASP9       -0.2733
     95  N         27.8520   -4.1390    3.3980 N.am   10  GLY10      -0.2953
     96  H         27.2480   -3.3230    3.4170 H      10  GLY10       0.1499
     97  CA        28.6930   -4.3830    4.5800 C.3    10  GLY10       0.1757
     98  C         29.8320   -3.3740    4.7910 C.2    10  GLY10       0.2429
     99  O         30.6910   -3.6050    5.6500 O.2    10  GLY10      -0.2732
    100  N         29.8550   -2.2770    4.0200 N.am   11  GLY11      -0.2952
    101  H         29.1140   -2.1580    3.3340 H      11  GLY11       0.1499
    102  CA        30.8280   -1.1850    4.0620 C.3    11  GLY11       0.1759
    103  C         32.2880   -1.6590    4.0540 C.2    11  GLY11       0.2460
    104  O         32.7210   -2.2170    3.0420 O.2    11  GLY11      -0.2730
    105  N         33.0580   -1.4760    5.1510 N.am   12  PRO12      -0.2716
    106  CD        32.6690   -0.8230    6.3940 C.3    12  PRO12       0.0939
    107  CA        34.4400   -1.9550    5.2520 C.3    12  PRO12       0.1518
    108  CB        34.8950   -1.6360    6.6820 C.3    12  PRO12       0.0310
    109  CG        33.9730   -0.5020    7.1190 C.3    12  PRO12       0.0237
    110  C         34.6010   -3.4540    4.9620 C.2    12  PRO12       0.2409
    111  O         35.6330   -3.8630    4.4360 O.2    12  PRO12      -0.2733
    112  N         33.5730   -4.2600    5.2640 N.am   13  SER13      -0.2950
    113  H         32.7380   -3.8320    5.6440 H      13  SER13       0.1499
    114  CA        33.5610   -5.7190    5.0760 C.3    13  SER13       0.1782
    115  CB        32.2280   -6.3210    5.5520 C.3    13  SER13       0.1660
    116  OG        31.7590   -5.7150    6.7410 O.3    13  SER13      -0.3798
    117  HG        31.2830   -4.8960    6.4770 H      13  SER13       0.2105
    118  C         33.7600   -6.1060    3.6080 C.2    13  SER13       0.2432
    119  O         34.4340   -7.0830    3.2990 O.2    13  SER13      -0.2732
    120  N         33.1520   -5.3260    2.7100 N.am   14  SER14      -0.2950
    121  H         32.5690   -4.5680    3.0450 H      14  SER14       0.1499
    122  CA        33.0980   -5.5430    1.2660 C.3    14  SER14       0.1782
    123  CB        31.9260   -4.7340    0.6970 C.3    14  SER14       0.1660
    124  OG        30.8450   -4.6560    1.6020 O.3    14  SER14      -0.3798
    125  HG        30.1490   -4.1050    1.2340 H      14  SER14       0.2105
    126  C         34.3600   -5.0730    0.5370 C.2    14  SER14       0.2432
    127  O         34.5560   -5.4130   -0.6260 O.2    14  SER14      -0.2732
    128  N         35.1690   -4.2140    1.1720 N.am   15  GLY15      -0.2952
    129  H         34.9170   -3.9790    2.1250 H      15  GLY15       0.1499
    130  CA        36.4100   -3.6430    0.6360 C.3    15  GLY15       0.1757
    131  C         36.2550   -2.6130   -0.4970 C.2    15  GLY15       0.2428
    132  O         37.2110   -1.8980   -0.7920 O.2    15  GLY15      -0.2732
    133  N         35.0700   -2.4970   -1.1150 N.am   16  ARG16      -0.2969
    134  H         34.3790   -3.1840   -0.8520 H      16  ARG16       0.1499
    135  CA        34.7270   -1.4650   -2.1080 C.3    16  ARG16       0.1489
    136  CB        33.2840   -1.6560   -2.6180 C.3    16  ARG16       0.0325
    137  CG        32.1980   -1.6230   -1.5270 C.3    16  ARG16       0.0450
    138  CD        31.0130   -2.5370   -1.8560 C.3    16  ARG16       0.1739
    139  NE        30.0460   -1.9260   -2.7890 N.pl3  16  ARG16      -0.2651
    140  HE        29.9490   -0.9270   -2.7610 H      16  ARG16       0.2586
    141  CZ        29.0540   -2.5900   -3.3710 C.cat  16  ARG16       0.3417
    142  NH1       29.0960   -3.8920   -3.5060 N.pl3  16  ARG16      -0.2918
    143 HH11       29.9430   -4.3620   -3.2610 H      16  ARG16       0.2545
    144 HH12       28.2180   -4.4100   -3.3260 H      16  ARG16       0.2545
    145  NH2       27.9770   -1.9660   -3.7760 N.pl3  16  ARG16      -0.2918
    146 HH21       27.8380   -0.9870   -3.6150 H      16  ARG16       0.2545
    147 HH22       27.1790   -2.5510   -3.9740 H      16  ARG16       0.2545
    148  C         34.9800   -0.0470   -1.5510 C.2    16  ARG16       0.2438
    149  O         34.4670    0.2590   -0.4720 O.2    16  ARG16      -0.2731
    150  N         35.7510    0.8210   -2.2390 N.am   17  PRO17      -0.2717
    151  CD        36.4780    0.5500   -3.4720 C.3    17  PRO17       0.0939
    152  CA        36.0160    2.1910   -1.7910 C.3    17  PRO17       0.1521
    153  CB        36.8080    2.8530   -2.9270 C.3    17  PRO17       0.0310
    154  CG        37.4950    1.6780   -3.6170 C.3    17  PRO17       0.0237
    155  C         34.7250    2.9770   -1.4720 C.2    17  PRO17       0.2440
    156  O         33.8160    2.9880   -2.3060 O.2    17  PRO17      -0.2731
    157  N         34.6100    3.6310   -0.2970 N.am   18  PRO18      -0.2717
    158  CD        35.5180    3.5630    0.8370 C.3    18  PRO18       0.0939
    159  CA        33.4510    4.4620    0.0240 C.3    18  PRO18       0.1521
    160  CB        33.6070    4.8820    1.4900 C.3    18  PRO18       0.0310
    161  CG        35.0910    4.6800    1.7870 C.3    18  PRO18       0.0237
    162  C         33.3460    5.6860   -0.9040 C.2    18  PRO18       0.2440
    163  O         34.3650    6.3110   -1.2050 O.2    18  PRO18      -0.2731
    164  N         32.1280    6.0600   -1.3410 N.am   19  PRO19      -0.2717
    165  CD        30.8730    5.3610   -1.0930 C.3    19  PRO19       0.0939
    166  CA        31.9010    7.2480   -2.1560 C.3    19  PRO19       0.1518
    167  CB        30.5300    7.0250   -2.8020 C.3    19  PRO19       0.0310
    168  CG        29.7790    6.1760   -1.7780 C.3    19  PRO19       0.0237
    169  C         31.9460    8.5190   -1.2910 C.2    19  PRO19       0.2409
    170  O         31.0970    8.7030   -0.4200 O.2    19  PRO19      -0.2733
    171  N         32.9380    9.3840   -1.5320 N.am   20  SER20      -0.2960
    172  H         33.6120    9.1430   -2.2410 H      20  SER20       0.1499
    173  CA        33.0160   10.7450   -0.9740 C.3    20  SER20       0.1665
    174  CB        34.4510   11.2640   -1.0110 C.3    20  SER20       0.1647
    175  OG        35.2290   10.5790   -0.0480 O.3    20  SER20      -0.3798
    176  HG        36.0490   11.0580    0.0920 H      20  SER20       0.2105
    177  C         32.1200   11.7230   -1.7340 C.2    20  SER20       0.2292
    178  O         32.2540   11.7710   -2.9770 O.2    20  SER20      -0.2864
@<TRIPOS>BOND
     1    42    41    2
     2    45    43    1
     3     2     1    1
     4    13    12    1
     5    41    43   am
     6    41    40    1
     7    43    44    1
     8    11    10    1
     9     1     3    1
    10   147   145    1
    11   145   146    1
    12   145   141    2
    13    10    12    1
    14    10     8   am
    15    12    14    1
    16   154   151    1
    17   154   153    1
    18   142   141    1
    19   142   144    1
    20   142   143    1
    21   151   150    1
    22     3     8    1
    23     3     4    1
    24   141   139    1
    25     8     9    2
    26    40    39    1
    27   178   177    2
    28   153   152    1
    29   167   166    1
    30   167   168    1
    31     6     5   ar
    32   139   140    1
    33   139   138    1
    34   136   135    1
    35   136   137    1
    36    39    38    1
    37   156   155    2
    38   172   171    1
    39   150   152    1
    40   150   148   am
    41    14    15    2
    42    14    16   am
    43    92    90   ar
    44   166   164    1
    45   166   169    1
    46   135   148    1
    47   135   133    1
    48     5     4    1
    49     5     7   ar
    50   138   137    1
    51   152   155    1
    52   168   165    1
    53   177   173    1
    54    91    90   ar
    55    17    16    1
    56   148   149    2
    57   171   169   am
    58   171   173    1
    59   155   157   am
    60    90    89    1
    61   164   165    1
    62   164   162   am
    63    16    18    1
    64   169   170    2
    65    37    36    1
    66   163   162    2
    67   133   134    1
    68   133   131   am
    69    38    36    1
    70    38    46    1
    71   174   173    1
    72   174   175    1
    73   162   159    1
    74   132   131    2
    75    49    48    1
    76   127   126    2
    77    36    34   am
    78   131   130    1
    79    46    48   am
    80    46    47    2
    81   157   159    1
    82   157   158    1
    83    48    50    1
    84    31    30    1
    85   175   176    1
    86    89    88    1
    87   159   160    1
    88    56    57   ar
    89    56    52   ar
    90    18    19    1
    91    18    28    1
    92    50    51    1
    93    50    62    1
    94    33    32    1
    95    51    52    1
    96    58    57    1
    97    30    28   am
    98    30    32    1
    99   126   128   am
   100   126   122    1
   101   130   128    1
   102    34    32    1
   103    34    35    2
   104   123   122    1
   105   123   124    1
   106    19    20    1
   107   158   161    1
   108    28    29    2
   109    57    54   ar
   110    52    53   ar
   111    87    86    1
   112    88    86    1
   113    88    93    1
   114   128   129    1
   115   125   124    1
   116   122   120    1
   117    86    84   am
   118   160   161    1
   119    76    77    1
   120    76    75    1
   121    62    63    2
   122    62    64   am
   123    22    20   ar
   124    22    24   ar
   125    20    21   ar
   126    77    78    1
   127    54    53   ar
   128    54    59   ar
   129    53    55   ar
   130    65    64    1
   131    74    73    1
   132    94    93    2
   133    84    75    1
   134    84    85    2
   135    93    95   am
   136    78    79    1
   137    64    66    1
   138    75    73    1
   139   120   121    1
   140   120   118   am
   141    24    25   ar
   142    73    71   am
   143   104   103    2
   144    21    23   ar
   145    79    80    1
   146   119   118    2
   147    59    61   ar
   148   101   100    1
   149    95    96    1
   150    95    97    1
   151    83    80    1
   152    55    60   ar
   153   118   114    1
   154    71    66    1
   155    71    72    2
   156    66    67    1
   157    25    23   ar
   158    25    26    1
   159   100   102    1
   160   100    98   am
   161    80    81    1
   162    80    82    1
   163   103   102    1
   164   103   105   am
   165   111   110    2
   166    61    60   ar
   167    97    98    1
   168    27    26    1
   169    67    68    1
   170    98    99    2
   171   110   107    1
   172   110   112   am
   173   114   112    1
   174   114   115    1
   175    68    69    1
   176    68    70    1
   177   105   107    1
   178   105   106    1
   179   107   108    1
   180   112   113    1
   181   115   116    1
   182   106   109    1
   183   117   116    1
   184   108   109    1
