@<TRIPOS>MOLECULE

1933 1946 8
SMALL
USER_CHARGES
@<TRIPOS>ATOM
1	C1     2.4820    11.9860     8.9450	C.2	1	fragment1	0.0000
2	C2     2.5250    10.4830     9.2280	C.3	1	fragment1	0.0000
3	N1     3.3590    10.2270    10.4110	N.3	1	fragment1	0.0000
4	O1     2.4210    12.8060     9.8570	O.2	1	fragment1	0.0000
5	C3     1.1000     9.9730     9.4700	C.3	1	fragment1	0.0000
6	C4     0.1760    10.5610     8.4550	C.3	1	fragment1	0.0000
7	C5    -1.2570    10.2170     8.7300	C.3	1	fragment1	0.0000
8	C6    -2.1640    10.9690     7.7440	C.3	1	fragment1	0.0000
9	N2    -3.5820    10.6150     7.8860	N.3	1	fragment1	0.0000
10	H1     3.0490    10.8390    11.1930	H	1	fragment1	0.0000
11	H2     2.9730     9.9730     8.3880	H	1	fragment1	0.0000
12	H3     0.7680    10.2650    10.4890	H	1	fragment1	0.0000
13	H4     1.0830     8.8650     9.3910	H	1	fragment1	0.0000
14	H5     0.4530    10.1770     7.4500	H	1	fragment1	0.0000
15	H6     0.2890    11.6660     8.4610	H	1	fragment1	0.0000
16	H7    -1.5170    10.5060     9.7710	H	1	fragment1	0.0000
17	H8    -1.4070     9.1220     8.6140	H	1	fragment1	0.0000
18	H9    -1.8620    10.7240     6.7030	H	1	fragment1	0.0000
19	H10    -2.0750    12.0620     7.9200	H	1	fragment1	0.0000
20	H11    -3.9470    10.9960     8.7820	H	1	fragment1	0.0000
21	H12    -3.6830     9.5800     7.8830	H	1	fragment1	0.0000
22	H13    -4.1210    11.0180     7.0930	H	1	fragment1	0.0000
23	C7     1.1200    14.0680     6.8500	C.2	1	fragment1	0.0000
24	C8     2.5010    13.7650     7.3630	C.3	1	fragment1	0.0000
25	N3     2.5440    12.3580     7.6910	N.3	1	fragment1	0.0000
26	O2     0.7420    13.5820     5.8150	O.2	1	fragment1	0.0000
27	C9     3.5010    14.1820     6.3120	C.3	1	fragment1	0.0000
28	C10     3.2500    15.6680     6.0260	C.3	1	fragment1	0.0000
29	C11     4.9390    13.9730     6.8560	C.3	1	fragment1	0.0000
30	H14     2.6210    11.7150     6.9330	H	1	fragment1	0.0000
31	H15     2.6890    14.3100     8.2760	H	1	fragment1	0.0000
32	H16     3.3610    13.5820     5.3870	H	1	fragment1	0.0000
33	H17     3.2100    16.2390     6.9780	H	1	fragment1	0.0000
34	H18     2.2810    15.7930     5.4970	H	1	fragment1	0.0000
35	H19     4.0730    16.0770     5.4010	H	1	fragment1	0.0000
36	H20     5.1000    12.9030     7.1090	H	1	fragment1	0.0000
37	H21     5.0880    14.5810     7.7740	H	1	fragment1	0.0000
38	H22     5.6820    14.2710     6.0850	H	1	fragment1	0.0000
39	C12    -1.1620    16.1210     6.1610	C.2	1	fragment1	0.0000
40	C13    -1.0200    15.0580     7.2350	C.3	1	fragment1	0.0000
41	N4     0.3540    14.7860     7.6090	N.3	1	fragment1	0.0000
42	O3    -0.3400    17.0220     6.0150	O.2	1	fragment1	0.0000
43	C14    -1.7960    15.6200     8.4560	C.3	1	fragment1	0.0000
44	C15    -2.3760    14.5670     9.3460	C.2	1	fragment1	0.0000
45	C16    -1.5820    13.9340    10.3040	C.2	1	fragment1	0.0000
46	C17    -3.7430    14.2740     9.3090	C.2	1	fragment1	0.0000
47	C18    -2.1200    12.9920    11.1830	C.2	1	fragment1	0.0000
48	C19    -4.2890    13.3200    10.1660	C.2	1	fragment1	0.0000
49	C20    -3.4820    12.7010    11.1300	C.2	1	fragment1	0.0000
50	H23     0.6680    15.1780     8.4700	H	1	fragment1	0.0000
51	H24    -1.4670    14.1360     6.8940	H	1	fragment1	0.0000
52	H25    -2.6400    16.2450     8.0950	H	1	fragment1	0.0000
53	H26    -1.1060    16.2300     9.0770	H	1	fragment1	0.0000
54	H27    -0.5320    14.1780    10.3660	H	1	fragment1	0.0000
55	H28    -4.3820    14.7920     8.6090	H	1	fragment1	0.0000
56	H29    -1.4850    12.4920    11.8990	H	1	fragment1	0.0000
57	H30    -5.3340    13.0580    10.0870	H	1	fragment1	0.0000
58	H31    -3.9140    12.0010    11.8300	H	1	fragment1	0.0000
59	C21    -3.4740    18.1080     5.4110	C.2	1	fragment1	0.0000
60	C22    -2.6760    17.0880     4.5630	C.3	1	fragment1	0.0000
61	N5    -2.2960    16.0650     5.4840	N.3	1	fragment1	0.0000
62	O4    -4.0490    17.7680     6.4380	O.2	1	fragment1	0.0000
63	H32    -2.9360    15.3070     5.5860	H	1	fragment1	0.0000
64	H33    -3.2930    16.6690     3.7830	H	1	fragment1	0.0000
65	H34    -1.7950    17.5450     4.1380	H	1	fragment1	0.0000
66	C23    -5.5990    20.1290     5.9370	C.2	1	fragment1	0.0000
67	C24    -4.1410    20.4270     5.6240	C.3	1	fragment1	0.0000
68	N6    -3.4830    19.3350     4.9660	N.3	1	fragment1	0.0000
69	O5    -6.0560    20.2200     7.0960	O.2	1	fragment1	0.0000
70	C25    -3.9660    21.6850     4.7720	C.3	1	fragment1	0.0000
71	C26    -4.6620    22.8890     5.3570	C.3	1	fragment1	0.0000
72	C27    -4.5120    24.1280     4.4510	C.3	1	fragment1	0.0000
73	C28    -6.4980    24.4350     2.9040	C.2	1	fragment1	0.0000
74	N7    -5.2200    24.0570     3.1490	N.3	1	fragment1	0.0000
75	N8    -7.3310    24.9100     3.8290	N.3	1	fragment1	0.0000
76	N9    -6.9520    24.3010     1.6720	N.2	1	fragment1	0.0000
77	H35    -3.0160    19.5750     4.1190	H	1	fragment1	0.0000
78	H36    -3.6970    20.5590     6.5990	H	1	fragment1	0.0000
79	H37    -4.3780    21.4910     3.7590	H	1	fragment1	0.0000
80	H38    -2.8820    21.9080     4.6820	H	1	fragment1	0.0000
81	H39    -4.2250    23.1130     6.3530	H	1	fragment1	0.0000
82	H40    -5.7420    22.6590     5.4820	H	1	fragment1	0.0000
83	H41    -3.4350    24.2760     4.2220	H	1	fragment1	0.0000
84	H42    -4.9140    25.0140     4.9860	H	1	fragment1	0.0000
85	H43    -4.7030    23.6940     2.3760	H	1	fragment1	0.0000
86	H44    -7.0240    25.0060     4.7760	H	1	fragment1	0.0000
87	H45    -8.2630    25.1700     3.5760	H	1	fragment1	0.0000
88	H46    -6.3580    23.9310     0.9580	H	1	fragment1	0.0000
89	H47    -7.8900    24.5690     1.4530	H	1	fragment1	0.0000
90	C29    -8.0300    18.1620     5.8590	C.2	1	fragment1	0.0000
91	C30    -7.8020    19.4970     5.1420	C.3	1	fragment1	0.0000
92	N10    -6.3590    19.7860     4.9100	N.3	1	fragment1	0.0000
93	O6    -8.9990    17.9730     6.5880	O.2	1	fragment1	0.0000
94	C31    -8.6240    19.5170     3.8090	C.3	1	fragment1	0.0000
95	S1    -8.6730    21.1280     3.0020	S.3	1	fragment1	0.0000
96	H48    -6.0190    19.7080     3.9760	H	1	fragment1	0.0000
97	H49    -8.1820    20.2450     5.8210	H	1	fragment1	0.0000
98	H50    -9.6620    19.1970     4.0370	H	1	fragment1	0.0000
99	H51    -8.1730    18.7790     3.1130	H	1	fragment1	0.0000
100	C32    -7.0970    16.1510     7.7690	C.2	1	fragment1	0.0000
101	C33    -7.2650    15.9210     6.2800	C.3	1	fragment1	0.0000
102	N11    -7.1390    17.2140     5.6360	N.3	1	fragment1	0.0000
103	O7    -7.8390    15.6620     8.6180	O.2	1	fragment1	0.0000
104	C34    -6.1300    14.9830     5.7770	C.3	1	fragment1	0.0000
105	C35    -6.1200    13.5590     6.3930	C.3	1	fragment1	0.0000
106	C36    -4.8960    12.7820     5.9300	C.2	1	fragment1	0.0000
107	O8    -3.9130    13.3150     5.4420	O.2	1	fragment1	0.0000
108	O9    -4.9910    11.4790     6.0970	O.3	1	fragment1	0.0000
109	H52    -6.3580    17.3400     5.0300	H	1	fragment1	0.0000
110	H53    -8.2340    15.5110     6.0350	H	1	fragment1	0.0000
111	H54    -5.1570    15.4650     6.0080	H	1	fragment1	0.0000
112	H55    -6.2300    14.8810     4.6760	H	1	fragment1	0.0000
113	H56    -7.0350    13.0130     6.0790	H	1	fragment1	0.0000
114	H57    -6.1030    13.6350     7.5010	H	1	fragment1	0.0000
115	C37    -7.0540    18.0210    10.1470	C.2	1	fragment1	0.0000
116	C38    -5.8770    17.2740     9.4840	C.3	1	fragment1	0.0000
117	N12    -6.1040    16.9690     8.0880	N.3	1	fragment1	0.0000
118	O10    -7.4760    17.7450    11.2830	O.2	1	fragment1	0.0000
119	C39    -4.5120    17.9730     9.6500	C.3	1	fragment1	0.0000
120	C40    -4.2960    18.4320    11.1010	C.3	1	fragment1	0.0000
121	C41    -4.2270    17.2200    12.0330	C.3	1	fragment1	0.0000
122	C42    -3.0350    19.3080    11.2270	C.3	1	fragment1	0.0000
123	H58    -5.4980    17.3910     7.4180	H	1	fragment1	0.0000
124	H59    -5.8990    16.3490    10.0410	H	1	fragment1	0.0000
125	H60    -4.4700    18.8560     8.9780	H	1	fragment1	0.0000
126	H61    -3.7030    17.2670     9.3660	H	1	fragment1	0.0000
127	H62    -5.1370    19.0890    11.4100	H	1	fragment1	0.0000
128	H63    -3.5080    16.4730    11.6350	H	1	fragment1	0.0000
129	H64    -5.2280    16.7440    12.1090	H	1	fragment1	0.0000
130	H65    -3.8870    17.5380    13.0420	H	1	fragment1	0.0000
131	H66    -3.1320    20.2110    10.5870	H	1	fragment1	0.0000
132	H67    -2.1420    18.7350    10.8990	H	1	fragment1	0.0000
133	H68    -2.9040    19.6330    12.2810	H	1	fragment1	0.0000
134	C43    -9.8500    18.8570    10.2320	C.2	1	fragment1	0.0000
135	C44    -8.6810    19.8100     9.9090	C.3	1	fragment1	0.0000
136	N13    -7.5370    19.0300     9.4550	N.3	1	fragment1	0.0000
137	O11   -10.4970    18.9160    11.2800	O.2	1	fragment1	0.0000
138	C45    -9.0910    20.7960     8.7840	C.3	1	fragment1	0.0000
139	H69    -7.1400    19.3080     8.5840	H	1	fragment1	0.0000
140	H70    -8.3980    20.3450    10.8030	H	1	fragment1	0.0000
141	H71    -9.3660    20.2340     7.8660	H	1	fragment1	0.0000
142	H72    -8.2420    21.4720     8.5460	H	1	fragment1	0.0000
143	H73    -9.9680    21.3960     9.1080	H	1	fragment1	0.0000
144	C46   -10.9420    16.0870    10.8260	C.2	1	fragment1	0.0000
145	C47   -11.2110    17.0010     9.6330	C.3	1	fragment1	0.0000
146	N14   -10.1080    17.9060     9.3600	N.3	1	fragment1	0.0000
147	O12   -11.8130    15.7770    11.6280	O.2	1	fragment1	0.0000
148	C48   -11.5260    16.1870     8.3930	C.3	1	fragment1	0.0000
149	H74    -9.5900    17.7680     8.5190	H	1	fragment1	0.0000
150	H75   -12.0670    17.5900     9.9270	H	1	fragment1	0.0000
151	H76   -10.6370    15.5930     8.0900	H	1	fragment1	0.0000
152	H77   -11.8020    16.8640     7.5560	H	1	fragment1	0.0000
153	H78   -12.3650    15.4890     8.6020	H	1	fragment1	0.0000
154	C49    -9.6180    15.5220    13.4240	C.2	1	fragment1	0.0000
155	C50    -9.5560    14.7630    12.1330	C.3	1	fragment1	0.0000
156	N15    -9.7320    15.6160    10.9880	N.3	1	fragment1	0.0000
157	O13   -10.0040    14.9820    14.4460	O.2	1	fragment1	0.0000
158	C51    -8.1970    14.0800    12.1060	C.3	1	fragment1	0.0000
159	H79    -8.9550    15.8030    10.3930	H	1	fragment1	0.0000
160	H80   -10.3440    14.0250    12.1210	H	1	fragment1	0.0000
161	H81    -7.3870    14.8410    12.1100	H	1	fragment1	0.0000
162	H82    -8.1010    13.4650    11.1860	H	1	fragment1	0.0000
163	H83    -8.0810    13.4330    13.0020	H	1	fragment1	0.0000
164	C52   -10.6010    17.9050    14.9030	C.2	1	fragment1	0.0000
165	C53    -9.1670    17.5930    14.5510	C.3	1	fragment1	0.0000
166	N16    -9.1390    16.7860    13.3700	N.3	1	fragment1	0.0000
167	O14   -10.9890    17.9010    16.0770	O.2	1	fragment1	0.0000
168	C54    -8.3810    18.8840    14.3860	C.3	1	fragment1	0.0000
169	C55    -6.8900    18.6040    14.5470	C.3	1	fragment1	0.0000
170	S2    -6.0180    20.1610    14.2500	S.3	1	fragment1	0.0000
171	C56    -4.4440    19.8600    15.1000	C.3	1	fragment1	0.0000
172	H84    -8.7620    17.1950    12.5430	H	1	fragment1	0.0000
173	H85    -8.7490    17.0080    15.3560	H	1	fragment1	0.0000
174	H86    -8.7060    19.6180    15.1540	H	1	fragment1	0.0000
175	H87    -8.5730    19.3100    13.3780	H	1	fragment1	0.0000
176	H88    -6.5700    17.8280    13.8200	H	1	fragment1	0.0000
177	H89    -6.6840    18.2260    15.5710	H	1	fragment1	0.0000
178	H90    -3.9130    18.9840    14.6690	H	1	fragment1	0.0000
179	H91    -4.6230    19.6570    16.1770	H	1	fragment1	0.0000
180	H92    -3.7800    20.7450    15.0030	H	1	fragment1	0.0000
181	C57   -13.5540    17.3240    14.7400	C.2	1	fragment1	0.0000
182	C58   -12.8070    18.4710    14.0820	C.3	1	fragment1	0.0000
183	N17   -11.3810    18.1660    13.8710	N.3	1	fragment1	0.0000
184	O15   -14.2920    17.5030    15.7060	O.2	1	fragment1	0.0000
185	C59   -13.5310    18.9060    12.8210	C.3	1	fragment1	0.0000
186	C60   -14.9750    19.3120    13.1010	C.3	1	fragment1	0.0000
187	C61   -15.6690    19.7230    11.8220	C.3	1	fragment1	0.0000
188	C62   -17.1130    20.1840    12.0040	C.3	1	fragment1	0.0000
189	N18   -17.4510    21.3010    11.1040	N.3	1	fragment1	0.0000
190	H93   -11.0520    18.1690    12.9300	H	1	fragment1	0.0000
191	H94   -12.8600    19.2580    14.8190	H	1	fragment1	0.0000
192	H95   -13.5270    18.0660    12.0940	H	1	fragment1	0.0000
193	H96   -12.9930    19.7700    12.3750	H	1	fragment1	0.0000
194	H97   -14.9860    20.1630    13.8150	H	1	fragment1	0.0000
195	H98   -15.5170    18.4550    13.5550	H	1	fragment1	0.0000
196	H99   -15.6640    18.8560    11.1280	H	1	fragment1	0.0000
197	H100   -15.0930    20.5540    11.3640	H	1	fragment1	0.0000
198	H101   -17.2660    20.5330    13.0480	H	1	fragment1	0.0000
199	H102   -17.8050    19.3450    11.7760	H	1	fragment1	0.0000
200	H103   -17.4930    20.9570    10.1240	H	1	fragment1	0.0000
201	H104   -16.7240    22.0410    11.1810	H	1	fragment1	0.0000
202	H105   -18.3750    21.6950    11.3720	H	1	fragment1	0.0000
203	C63   -13.5330    14.6900    16.1380	C.2	1	fragment1	0.0000
204	C64   -13.9450    14.9370    14.7170	C.3	1	fragment1	0.0000
205	N19   -13.3150    16.1240    14.2020	N.3	1	fragment1	0.0000
206	O16   -14.2850    14.1050    16.8900	O.2	1	fragment1	0.0000
207	C65   -13.6250    13.7160    13.8870	C.3	1	fragment1	0.0000
208	C66   -13.9920    12.4520    14.6570	C.3	1	fragment1	0.0000
209	C67   -14.1150    11.2160    13.7830	C.3	1	fragment1	0.0000
210	C68   -12.1940     9.7480    13.8440	C.2	1	fragment1	0.0000
211	N20   -12.8330    10.7560    13.2790	N.3	1	fragment1	0.0000
212	N21   -12.7320     9.1150    14.8860	N.3	1	fragment1	0.0000
213	N22   -11.0070     9.3650    13.3580	N.2	1	fragment1	0.0000
214	H106   -12.6970    15.9980    13.4300	H	1	fragment1	0.0000
215	H107   -15.0110    15.1090    14.7240	H	1	fragment1	0.0000
216	H108   -12.5400    13.7030    13.6490	H	1	fragment1	0.0000
217	H109   -14.2000    13.7520    12.9370	H	1	fragment1	0.0000
218	H110   -14.9630    12.6200    15.1680	H	1	fragment1	0.0000
219	H111   -13.2100    12.2660    15.4230	H	1	fragment1	0.0000
220	H112   -14.7560    11.4450    12.9050	H	1	fragment1	0.0000
221	H113   -14.5590    10.3870    14.3740	H	1	fragment1	0.0000
222	H114   -12.4260    11.2120    12.4880	H	1	fragment1	0.0000
223	H115   -13.6210     9.4030    15.2410	H	1	fragment1	0.0000
224	H116   -12.2470     8.3520    15.3130	H	1	fragment1	0.0000
225	H117   -10.6110     9.8410    12.5730	H	1	fragment1	0.0000
226	H118   -10.5160     8.6030    13.7800	H	1	fragment1	0.0000
227	N23   -12.3140    15.1160    16.4920	N.3	1	fragment1	0.0000
228	H119   -11.7030    15.5780    15.8540	H	2	fragment2	0.0000
229	C69   -11.8130    14.9240    17.8400	C.3	1	fragment1	0.0000
230	H120   -12.2800    14.0350    18.2380	H	3	fragment3	0.0000
231	C70   -10.3020    14.7760    17.8800	C.3	1	fragment1	0.0000
232	H121    -9.9370    14.9070    18.9210	H	4	fragment4	0.0000
233	H122    -9.8300    15.5430    17.2290	H	5	fragment5	0.0000
234	N24    -9.7650    13.1760    16.0420	N.1	1	fragment1	0.0000
235	H123    -9.8590    13.8460    15.3060	H	6	fragment6	0.0000
236	C71    -9.9360    13.4230    17.3950	C.2	1	fragment1	0.0000
237	C72    -9.4560    11.8860    15.9290	C.1	1	fragment1	0.0000
238	H124    -9.2640    11.3940    14.9760	H	7	fragment7	0.0000
239	N25    -9.4200    11.3090    17.1310	N.1	1	fragment1	0.0000
240	C73    -9.7670    12.2560    18.0830	C.2	1	fragment1	0.0000
241	H125    -9.8580    12.0120    19.1330	H	8	fragment8	0.0000
242	C74   -12.2320    16.0220    18.8030	C.2	1	fragment1	0.0000
243	O17   -11.7370    16.0620    19.9160	O.2	1	fragment1	0.0000
244	C75   -12.8150    19.1810    19.4270	C.2	1	fragment1	0.0000
245	C76   -13.6640    17.9580    19.1950	C.3	1	fragment1	0.0000
246	N26   -13.1110    16.9030    18.3710	N.3	1	fragment1	0.0000
247	O18   -13.0170    19.9120    20.3900	O.2	1	fragment1	0.0000
248	H126   -13.4430    16.8810    17.4320	H	1	fragment1	0.0000
249	H127   -13.8790    17.5180    20.1570	H	1	fragment1	0.0000
250	H128   -14.5780    18.2760    18.7170	H	1	fragment1	0.0000
251	C77   -11.7350    21.9580    18.3510	C.2	1	fragment1	0.0000
252	C78   -11.1030    20.6740    18.8210	C.3	1	fragment1	0.0000
253	N27   -11.8920    19.4810    18.5570	N.3	1	fragment1	0.0000
254	O19   -11.4080    23.0260    18.8420	O.2	1	fragment1	0.0000
255	C79    -9.7560    20.5650    18.1070	C.3	1	fragment1	0.0000
256	C80    -8.7930    19.7210    18.8830	C.3	1	fragment1	0.0000
257	C81    -7.4740    19.7970    18.1400	C.3	1	fragment1	0.0000
258	C82    -8.6810    20.2740    20.3020	C.3	1	fragment1	0.0000
259	H129   -11.6960    18.9520    17.7350	H	1	fragment1	0.0000
260	H130   -10.9610    20.7580    19.8880	H	1	fragment1	0.0000
261	H131    -9.3280    21.5820    17.9800	H	1	fragment1	0.0000
262	H132    -9.9110    20.1120    17.1040	H	1	fragment1	0.0000
263	H133    -9.1500    18.6700    18.9340	H	1	fragment1	0.0000
264	H134    -7.1250    20.8500    18.0890	H	1	fragment1	0.0000
265	H135    -7.6010    19.4150    17.1040	H	1	fragment1	0.0000
266	H136    -6.7060    19.1940    18.6700	H	1	fragment1	0.0000
267	H137    -9.5450    19.9350    20.9130	H	1	fragment1	0.0000
268	H138    -8.6790    21.3850    20.2760	H	1	fragment1	0.0000
269	H139    -7.7450    19.9100    20.7770	H	1	fragment1	0.0000
270	C83   -13.9580    23.8290    17.7920	C.2	1	fragment1	0.0000
271	C84   -13.2200    23.0560    16.7390	C.3	1	fragment1	0.0000
272	N28   -12.5760    21.8740    17.3360	N.3	1	fragment1	0.0000
273	O20   -14.9010    23.3210    18.3810	O.2	1	fragment1	0.0000
274	C85   -14.1820    22.6880    15.5850	C.3	1	fragment1	0.0000
275	C86   -14.8470    23.8650    14.9160	C.2	1	fragment1	0.0000
276	O21   -14.3680    25.0100    14.8440	O.2	1	fragment1	0.0000
277	O22   -15.9940    23.5060    14.3980	O.3	1	fragment1	0.0000
278	H140   -12.8150    20.9980    16.9250	H	1	fragment1	0.0000
279	H141   -12.4370    23.7020    16.3720	H	1	fragment1	0.0000
280	H142   -14.9790    22.0290    15.9890	H	1	fragment1	0.0000
281	H143   -13.6080    22.1350    14.8120	H	1	fragment1	0.0000
282	C87   -13.8310    25.4160    20.4720	C.2	1	fragment1	0.0000
283	C88   -14.0590    25.8840    19.0500	C.3	1	fragment1	0.0000
284	N29   -13.4980    25.0350    18.0430	N.3	1	fragment1	0.0000
285	O23   -14.4310    25.9330    21.4360	O.2	1	fragment1	0.0000
286	C89   -15.5070    26.2310    18.7520	C.3	1	fragment1	0.0000
287	C90   -15.5730    27.4690    17.9210	C.2	1	fragment1	0.0000
288	O24   -15.2570    28.5720    18.4230	O.2	1	fragment1	0.0000
289	N30   -15.9240    27.2630    16.6460	N.3	1	fragment1	0.0000
290	H144   -12.7290    25.4170    17.5370	H	1	fragment1	0.0000
291	H145   -13.4640    26.7840    19.0910	H	1	fragment1	0.0000
292	H146   -16.0540    26.4000    19.7040	H	1	fragment1	0.0000
293	H147   -15.9860    25.3940    18.2000	H	1	fragment1	0.0000
294	H148   -15.9710    26.3320    16.2840	H	1	fragment1	0.0000
295	H149   -16.1390    28.0400    16.0550	H	1	fragment1	0.0000
296	C91   -12.0120    25.1540    22.7360	C.2	1	fragment1	0.0000
297	C92   -12.6320    23.9800    21.9780	C.3	1	fragment1	0.0000
298	N31   -12.9490    24.4280    20.6370	N.3	1	fragment1	0.0000
299	O25   -11.0170    25.7340    22.3060	O.2	1	fragment1	0.0000
300	C93   -11.6540    22.7790    21.9600	C.3	1	fragment1	0.0000
301	C94   -11.4640    22.2280    23.3520	C.2	1	fragment1	0.0000
302	C95   -12.3250    21.2480    23.8410	C.2	1	fragment1	0.0000
303	C96   -10.4720    22.7310    24.1990	C.2	1	fragment1	0.0000
304	C97   -12.2020    20.7510    25.1400	C.2	1	fragment1	0.0000
305	C98   -10.3350    22.2430    25.4960	C.2	1	fragment1	0.0000
306	C99   -11.2060    21.2620    25.9670	C.2	1	fragment1	0.0000
307	O26   -11.0920    20.8130    27.2580	O.3	1	fragment1	0.0000
308	H150   -12.4880    23.9720    19.8800	H	1	fragment1	0.0000
309	H151   -13.5570    23.6980    22.4590	H	1	fragment1	0.0000
310	H152   -10.6620    23.1030    21.5800	H	1	fragment1	0.0000
311	H153   -12.0610    21.9670    21.3210	H	1	fragment1	0.0000
312	H154   -13.1050    20.8640    23.2010	H	1	fragment1	0.0000
313	H155    -9.8070    23.5040    23.8450	H	1	fragment1	0.0000
314	H156   -12.8700    19.9810    25.4980	H	1	fragment1	0.0000
315	H157    -9.5540    22.6250    26.1370	H	1	fragment1	0.0000
316	H158   -11.7770    20.1570    27.4060	H	1	fragment1	0.0000
317	C100   -12.2360    27.9910    23.8940	C.2	1	fragment1	0.0000
318	C101   -12.1760    26.6860    24.6670	C.3	1	fragment1	0.0000
319	N32   -12.6170    25.5330    23.8630	N.3	1	fragment1	0.0000
320	O27   -11.4860    28.9230    24.1850	O.2	1	fragment1	0.0000
321	C102   -10.8360    26.5220    25.3810	C.3	1	fragment1	0.0000
322	C103   -10.8860    25.4030    26.3940	C.3	1	fragment1	0.0000
323	C104   -11.5000    25.8000    27.7290	C.3	1	fragment1	0.0000
324	C105   -11.4110    24.6690    29.9470	C.2	1	fragment1	0.0000
325	N33   -11.5720    24.6380    28.6250	N.3	1	fragment1	0.0000
326	N34   -11.1990    25.7970    30.6180	N.3	1	fragment1	0.0000
327	N35   -11.4720    23.5150    30.6070	N.2	1	fragment1	0.0000
328	H159   -13.4090    25.0430    24.2170	H	1	fragment1	0.0000
329	H160   -12.9470    26.8650    25.4010	H	1	fragment1	0.0000
330	H161   -10.5810    27.4710    25.8990	H	1	fragment1	0.0000
331	H162   -10.0480    26.2990    24.6300	H	1	fragment1	0.0000
332	H163    -9.8500    25.0480    26.5760	H	1	fragment1	0.0000
333	H164   -11.4830    24.5700    25.9670	H	1	fragment1	0.0000
334	H165   -12.5320    26.1820    27.5750	H	1	fragment1	0.0000
335	H166   -10.8750    26.5760    28.2200	H	1	fragment1	0.0000
336	H167   -11.7570    23.7500    28.2080	H	1	fragment1	0.0000
337	H168   -11.1550    26.6690    30.1300	H	1	fragment1	0.0000
338	H169   -11.0830    25.7740    31.6110	H	1	fragment1	0.0000
339	H170   -11.6340    22.6630    30.1100	H	1	fragment1	0.0000
340	H171   -11.3560    23.5000    31.6000	H	1	fragment1	0.0000
341	C106   -12.2080    29.3890    20.9490	C.2	1	fragment1	0.0000
342	C107   -13.2120    29.2760    22.1020	C.3	1	fragment1	0.0000
343	N36   -13.1090    28.0550    22.8770	N.3	1	fragment1	0.0000
344	O28   -12.2150    30.3590    20.2090	O.2	1	fragment1	0.0000
345	H172   -13.7030    27.2980    22.6170	H	1	fragment1	0.0000
346	H173   -13.0530    30.1020    22.7790	H	1	fragment1	0.0000
347	H174   -14.2110    29.3160    21.6930	H	1	fragment1	0.0000
348	C108   -10.9250    27.7490    18.4230	C.2	1	fragment1	0.0000
349	C109   -10.4010    28.4800    19.6590	C.3	1	fragment1	0.0000
350	N37   -11.3420    28.4070    20.7660	N.3	1	fragment1	0.0000
351	O29   -11.0680    26.4980    18.4160	O.2	1	fragment1	0.0000
352	C110    -9.0420    27.8710    20.0330	C.3	1	fragment1	0.0000
353	C111    -8.3730    28.7180    21.0470	C.2	1	fragment1	0.0000
354	C112    -7.5570    29.7810    20.6550	C.2	1	fragment1	0.0000
355	C113    -8.5670    28.4580    22.4000	C.2	1	fragment1	0.0000
356	C114    -6.9040    30.5660    21.6030	C.2	1	fragment1	0.0000
357	C115    -7.9120    29.2280    23.3590	C.2	1	fragment1	0.0000
358	C116    -7.0990    30.3000    22.9570	C.2	1	fragment1	0.0000
359	O30    -6.4360    31.0880    23.8980	O.3	1	fragment1	0.0000
360	H175   -11.2950    27.6030    21.3540	H	1	fragment1	0.0000
361	H176   -10.2810    29.5200    19.3950	H	1	fragment1	0.0000
362	H177    -8.3870    27.8180    19.1380	H	1	fragment1	0.0000
363	H178    -9.1820    26.8570    20.4650	H	1	fragment1	0.0000
364	H179    -7.4300    29.9970    19.6050	H	1	fragment1	0.0000
365	H180    -9.2260    27.6590    22.7070	H	1	fragment1	0.0000
366	H181    -6.2550    31.3710    21.2920	H	1	fragment1	0.0000
367	H182    -8.0290    29.0010    24.4080	H	1	fragment1	0.0000
368	H183    -7.0430    31.2590    24.6220	H	1	fragment1	0.0000
369	C117   -10.6440    27.0330    15.5140	C.2	1	fragment1	0.0000
370	C118   -11.6580    27.9850    16.1320	C.3	1	fragment1	0.0000
371	N38   -11.1900    28.5450    17.3850	N.3	1	fragment1	0.0000
372	O31    -9.4240    27.1100    15.7260	O.2	1	fragment1	0.0000
373	C119   -12.0230    29.0650    15.1460	C.3	1	fragment1	0.0000
374	O32   -10.8490    29.7440    14.7360	O.3	1	fragment1	0.0000
375	H184   -11.0810    29.5350    17.4220	H	1	fragment1	0.0000
376	H185   -12.5200    27.3710    16.3460	H	1	fragment1	0.0000
377	H186   -12.7160    29.7930    15.6200	H	1	fragment1	0.0000
378	H187   -12.5120    28.6160    14.2550	H	1	fragment1	0.0000
379	H188   -11.1460    30.5120    14.2420	H	1	fragment1	0.0000
380	C120    -9.2380    25.6480    13.3080	C.2	1	fragment1	0.0000
381	C121   -10.4660    25.1070    14.0170	C.3	1	fragment1	0.0000
382	N39   -11.2060    26.1300    14.7200	N.3	1	fragment1	0.0000
383	O33    -8.1780    25.0400    13.3230	O.2	1	fragment1	0.0000
384	C122   -11.4040    24.4420    13.0120	C.3	1	fragment1	0.0000
385	C123   -10.8830    23.1500    12.4400	C.3	1	fragment1	0.0000
386	C124   -10.3120    22.2750    13.5590	C.3	1	fragment1	0.0000
387	C125   -12.0570    22.4220    11.7780	C.3	1	fragment1	0.0000
388	H189   -12.1910    26.1180    14.5700	H	1	fragment1	0.0000
389	H190   -10.1010    24.3890    14.7360	H	1	fragment1	0.0000
390	H191   -11.5790    25.1500    12.1750	H	1	fragment1	0.0000
391	H192   -12.3710    24.2360    13.5180	H	1	fragment1	0.0000
392	H193   -10.0870    23.3680    11.6970	H	1	fragment1	0.0000
393	H194   -11.0430    22.1940    14.3910	H	1	fragment1	0.0000
394	H195    -9.3760    22.7270    13.9520	H	1	fragment1	0.0000
395	H196   -10.1010    21.2550    13.1720	H	1	fragment1	0.0000
396	H197   -12.4870    23.0490    10.9680	H	1	fragment1	0.0000
397	H198   -12.8500    22.2210    12.5300	H	1	fragment1	0.0000
398	H199   -11.7080    21.4640    11.3370	H	1	fragment1	0.0000
399	C126    -7.0570    27.5570    12.8640	C.2	1	fragment1	0.0000
400	C127    -8.2140    27.3000    11.9550	C.3	1	fragment1	0.0000
401	N40    -9.3620    26.8120    12.6860	N.3	1	fragment1	0.0000
402	O34    -5.9020    27.5420    12.4330	O.2	1	fragment1	0.0000
403	H200   -10.1900    27.3670    12.6910	H	1	fragment1	0.0000
404	H201    -8.4930    28.2190    11.4620	H	1	fragment1	0.0000
405	H202    -7.9370    26.5550    11.2240	H	1	fragment1	0.0000
406	C128    -5.3940    26.8880    15.2640	C.2	1	fragment1	0.0000
407	C129    -6.2600    28.1270    15.0680	C.3	1	fragment1	0.0000
408	N41    -7.3470    27.8710    14.1200	N.3	1	fragment1	0.0000
409	O35    -4.1710    26.9330    15.2680	O.2	1	fragment1	0.0000
410	C130    -6.7450    28.5780    16.4670	C.3	1	fragment1	0.0000
411	C131    -7.2380    30.0210    16.4210	C.2	1	fragment1	0.0000
412	O36    -6.4170    30.8690    16.4070	O.2	1	fragment1	0.0000
413	N42    -8.5720    30.2580    16.3030	N.3	1	fragment1	0.0000
414	H203    -8.2800    27.9450    14.4640	H	1	fragment1	0.0000
415	H204    -5.6350    28.8950    14.6380	H	1	fragment1	0.0000
416	H205    -5.9070    28.5040    17.1920	H	1	fragment1	0.0000
417	H206    -7.5760    27.9210    16.8020	H	1	fragment1	0.0000
418	H207    -9.2130    29.4920    16.2480	H	1	fragment1	0.0000
419	H208    -8.9120    31.1980    16.2710	H	1	fragment1	0.0000
420	C132    -4.6200    24.0440    14.4880	C.2	1	fragment1	0.0000
421	C133    -5.3880    24.4880    15.6780	C.3	1	fragment1	0.0000
422	N43    -6.0570    25.7730    15.4420	N.3	1	fragment1	0.0000
423	O37    -3.5160    23.5170    14.6420	O.2	1	fragment1	0.0000
424	C134    -6.4110    23.4200    16.0800	C.3	1	fragment1	0.0000
425	C135    -7.0690    23.8150    17.3690	C.2	1	fragment1	0.0000
426	C136    -8.2880    24.4330    17.5130	C.2	1	fragment1	0.0000
427	C137    -6.5050    23.7030    18.6950	C.2	1	fragment1	0.0000
428	C138    -7.4700    24.1790    19.6120	C.2	1	fragment1	0.0000
429	C139    -5.3160    23.1550    19.2030	C.2	1	fragment1	0.0000
430	C140    -7.2510    24.1420    20.9940	C.2	1	fragment1	0.0000
431	C141    -5.1120    23.1450    20.5630	C.2	1	fragment1	0.0000
432	C142    -6.0580    23.6460    21.4440	C.2	1	fragment1	0.0000
433	N44    -8.5550    24.6120    18.8670	N.3	1	fragment1	0.0000
434	H209    -7.0530    25.7460    15.4250	H	1	fragment1	0.0000
435	H210    -4.6610    24.6270    16.4640	H	1	fragment1	0.0000
436	H211    -5.9010    22.4420    16.2130	H	1	fragment1	0.0000
437	H212    -7.1840    23.3230    15.2880	H	1	fragment1	0.0000
438	H213    -8.9370    24.7330    16.7030	H	1	fragment1	0.0000
439	H214    -9.3790    24.9850    19.2350	H	1	fragment1	0.0000
440	H215    -4.5610    22.7430    18.5500	H	1	fragment1	0.0000
441	H216    -7.9910    24.4900    21.7000	H	1	fragment1	0.0000
442	H217    -4.1920    22.7370    20.9540	H	1	fragment1	0.0000
443	H218    -5.8500    23.6450    22.5040	H	1	fragment1	0.0000
444	C143    -3.2770    24.7120    11.8100	C.2	1	fragment1	0.0000
445	C144    -4.5460    23.8540    12.0720	C.3	1	fragment1	0.0000
446	N45    -5.2180    24.2510    13.3030	N.3	1	fragment1	0.0000
447	O38    -2.2090    24.2240    11.4230	O.2	1	fragment1	0.0000
448	C145    -5.5190    23.8910    10.9000	C.3	1	fragment1	0.0000
449	C146    -4.7010    23.6190     9.6730	C.3	1	fragment1	0.0000
450	C147    -6.6100    22.7940    11.0070	C.3	1	fragment1	0.0000
451	H219    -6.1180    24.6710    13.2140	H	1	fragment1	0.0000
452	H220    -4.1590    22.8550    12.2080	H	1	fragment1	0.0000
453	H221    -6.0050    24.8870    10.8300	H	1	fragment1	0.0000
454	H222    -4.0740    22.7140     9.8250	H	1	fragment1	0.0000
455	H223    -4.0330    24.4820     9.4650	H	1	fragment1	0.0000
456	H224    -5.3700    23.4450     8.8030	H	1	fragment1	0.0000
457	H225    -7.1990    22.9300    11.9390	H	1	fragment1	0.0000
458	H226    -6.1350    21.7900    11.0310	H	1	fragment1	0.0000
459	H227    -7.3000    22.8610    10.1390	H	1	fragment1	0.0000
460	C148    -1.1080    26.5520    12.8090	C.2	1	fragment1	0.0000
461	C149    -2.2850    26.9400    11.8910	C.3	1	fragment1	0.0000
462	N46    -3.3950    26.0220    12.0470	N.3	1	fragment1	0.0000
463	O39     0.0730    26.5310    12.4440	O.2	1	fragment1	0.0000
464	C150    -2.7560    28.3860    12.1790	C.3	1	fragment1	0.0000
465	S3    -1.4230    29.6190    11.9580	S.3	1	fragment1	0.0000
466	H228    -4.2560    26.4280    12.3430	H	1	fragment1	0.0000
467	H229    -1.9160    26.8560    10.8790	H	1	fragment1	0.0000
468	H230    -3.1300    28.4340    13.2230	H	1	fragment1	0.0000
469	H231    -3.5950    28.6270    11.4930	H	1	fragment1	0.0000
470	C151     0.2840    24.6120    14.6280	C.2	1	fragment1	0.0000
471	C152    -0.4540    25.8720    15.0510	C.3	1	fragment1	0.0000
472	N47    -1.4570    26.2440    14.0710	N.3	1	fragment1	0.0000
473	O40     1.5420    24.5430    14.7260	O.2	1	fragment1	0.0000
474	C153    -1.0370    25.7450    16.4580	C.3	1	fragment1	0.0000
475	H232    -2.4030    26.2570    14.3840	H	1	fragment1	0.0000
476	H233     0.3130    26.6320    15.0380	H	1	fragment1	0.0000
477	H234    -1.8300    24.9670    16.4740	H	1	fragment1	0.0000
478	H235    -1.4840    26.7130    16.7710	H	1	fragment1	0.0000
479	H236    -0.2390    25.4530    17.1730	H	1	fragment1	0.0000
480	C154     1.0160    22.6010    12.5630	C.2	1	fragment1	0.0000
481	C155     0.0750    22.3550    13.6950	C.3	1	fragment1	0.0000
482	N48    -0.5070    23.6330    14.1350	N.3	1	fragment1	0.0000
483	O41     2.1440    22.0580    12.5130	O.2	1	fragment1	0.0000
484	C156    -0.9760    21.2920    13.3530	C.3	1	fragment1	0.0000
485	H237    -1.4960    23.7300    14.0490	H	1	fragment1	0.0000
486	H238     0.7060    21.9970    14.4950	H	1	fragment1	0.0000
487	H239    -1.6310    21.6530    12.5310	H	1	fragment1	0.0000
488	H240    -1.6070    21.0830    14.2440	H	1	fragment1	0.0000
489	H241    -0.4750    20.3570    13.0220	H	1	fragment1	0.0000
490	C157     2.8630    24.3120    11.0140	C.2	1	fragment1	0.0000
491	C158     1.4940    23.8180    10.5490	C.3	1	fragment1	0.0000
492	N49     0.5970    23.4990    11.6840	N.3	1	fragment1	0.0000
493	O42     3.9500    23.8800    10.6080	O.2	1	fragment1	0.0000
494	C159     0.8700    24.9120     9.6640	C.3	1	fragment1	0.0000
495	C160     1.7420    25.3720     8.4910	C.3	1	fragment1	0.0000
496	C161     2.0250    24.2850     7.4750	C.3	1	fragment1	0.0000
497	C162     3.1360    24.6130     6.4880	C.3	1	fragment1	0.0000
498	N50     2.9900    23.8010     5.2620	N.3	1	fragment1	0.0000
499	H242    -0.2790    23.9710    11.7390	H	1	fragment1	0.0000
500	H243     1.6470    22.9140     9.9780	H	1	fragment1	0.0000
501	H244     0.6550    25.7940    10.3030	H	1	fragment1	0.0000
502	H245    -0.0850    24.5230     9.2540	H	1	fragment1	0.0000
503	H246     2.7100    25.7380     8.8940	H	1	fragment1	0.0000
504	H247     1.2260    26.2100     7.9760	H	1	fragment1	0.0000
505	H248     1.0940    24.0940     6.9010	H	1	fragment1	0.0000
506	H249     2.3070    23.3610     8.0230	H	1	fragment1	0.0000
507	H250     4.1260    24.3840     6.9380	H	1	fragment1	0.0000
508	H251     3.0860    25.6850     6.2000	H	1	fragment1	0.0000
509	H252     1.9840    23.7350     5.0070	H	1	fragment1	0.0000
510	H253     3.3680    22.8470     5.4310	H	1	fragment1	0.0000
511	H254     3.5160    24.2490     4.4850	H	1	fragment1	0.0000
512	C163     4.7890    25.1490    13.2850	C.2	1	fragment1	0.0000
513	C164     4.0400    25.9050    12.2200	C.3	1	fragment1	0.0000
514	N51     2.8030    25.3100    11.8390	N.3	1	fragment1	0.0000
515	O43     5.9800    25.3090    13.3770	O.2	1	fragment1	0.0000
516	C165     3.8420    27.4050    12.5530	C.3	1	fragment1	0.0000
517	C166     3.4290    28.1280    11.3050	C.2	1	fragment1	0.0000
518	C167     4.2190    28.0860    10.1600	C.2	1	fragment1	0.0000
519	C168     2.2210    28.8200    11.2410	C.2	1	fragment1	0.0000
520	C169     3.8080    28.7440     8.9950	C.2	1	fragment1	0.0000
521	C170     1.7960    29.4660    10.0750	C.2	1	fragment1	0.0000
522	C171     2.5880    29.4180     8.9300	C.2	1	fragment1	0.0000
523	H255     1.9590    25.6810    12.2170	H	1	fragment1	0.0000
524	H256     4.7330    25.7910    11.4000	H	1	fragment1	0.0000
525	H257     4.7920    27.8490    12.9200	H	1	fragment1	0.0000
526	H258     3.0430    27.5310    13.3140	H	1	fragment1	0.0000
527	H259     5.1530    27.5440    10.1700	H	1	fragment1	0.0000
528	H260     1.5930    28.8590    12.1190	H	1	fragment1	0.0000
529	H261     4.4500    28.7300     8.1270	H	1	fragment1	0.0000
530	H262     0.8570    30.0000    10.0630	H	1	fragment1	0.0000
531	H263     2.2660    29.8910     8.0140	H	1	fragment1	0.0000
532	C172     5.6110    22.4460    14.5420	C.2	1	fragment1	0.0000
533	C173     4.8320    23.6190    15.1470	C.3	1	fragment1	0.0000
534	N52     4.1060    24.3710    14.1220	N.3	1	fragment1	0.0000
535	O44     6.7430    22.1750    14.9020	O.2	1	fragment1	0.0000
536	C174     3.8420    23.0220    16.1560	C.3	1	fragment1	0.0000
537	C175     3.3780    24.0930    17.1570	C.3	1	fragment1	0.0000
538	C176     4.4560    24.7450    18.0140	C.2	1	fragment1	0.0000
539	O45     5.5650    24.3370    18.1020	O.2	1	fragment1	0.0000
540	O46     4.0740    25.7840    18.6960	O.3	1	fragment1	0.0000
541	H264     3.1150    24.2680    14.0920	H	1	fragment1	0.0000
542	H265     5.5150    24.2940    15.6410	H	1	fragment1	0.0000
543	H266     4.3340    22.1920    16.7070	H	1	fragment1	0.0000
544	H267     2.9610    22.6200    15.6130	H	1	fragment1	0.0000
545	H268     2.6460    23.6220    17.8460	H	1	fragment1	0.0000
546	H269     2.8750    24.9000    16.5840	H	1	fragment1	0.0000
547	C177     5.4770    20.2780    11.5670	C.2	1	fragment1	0.0000
548	C178     5.5780    20.5230    13.0520	C.3	1	fragment1	0.0000
549	N53     4.9900    21.7370    13.5950	N.3	1	fragment1	0.0000
550	O47     5.8070    19.1540    11.1050	O.2	1	fragment1	0.0000
551	C179     4.7680    19.3990    13.6510	C.3	1	fragment1	0.0000
552	O48     3.4320    19.3580    13.0470	O.3	1	fragment1	0.0000
553	H270     4.1050    22.0050    13.2220	H	1	fragment1	0.0000
554	H271     6.6170    20.4640    13.3410	H	1	fragment1	0.0000
555	H272     4.6620    19.5550    14.7460	H	1	fragment1	0.0000
556	H273     5.2760    18.4290    13.4630	H	1	fragment1	0.0000
557	H274     2.9210    20.0400    13.4880	H	1	fragment1	0.0000
558	C180     3.7590    19.9050     9.1740	C.2	1	fragment1	0.0000
559	C181     4.6560    21.1190     9.4250	C.3	1	fragment1	0.0000
560	N54     4.9180    21.2510    10.8560	N.3	1	fragment1	0.0000
561	O49     3.8760    19.2180     8.1800	O.2	1	fragment1	0.0000
562	C182     5.9470    21.0690     8.6040	C.3	1	fragment1	0.0000
563	C183     5.7720    21.3870     7.1350	C.2	1	fragment1	0.0000
564	O50     5.0580    22.3550     6.7500	O.2	1	fragment1	0.0000
565	N55     6.4130    20.5710     6.2940	N.3	1	fragment1	0.0000
566	H275     4.6510    22.1180    11.2690	H	1	fragment1	0.0000
567	H276     4.0590    21.9660     9.1220	H	1	fragment1	0.0000
568	H277     6.3760    20.0480     8.6850	H	1	fragment1	0.0000
569	H278     6.6640    21.8020     9.0310	H	1	fragment1	0.0000
570	H279     6.3460    20.7170     5.3070	H	1	fragment1	0.0000
571	H280     6.9600    19.8140     6.6510	H	1	fragment1	0.0000
572	C184     2.3920    17.1890    10.1520	C.2	1	fragment1	0.0000
573	C185     1.8400    18.5990    10.0360	C.3	1	fragment1	0.0000
574	N56     2.8580    19.6550    10.1110	N.3	1	fragment1	0.0000
575	O51     1.7530    16.2640     9.7010	O.2	1	fragment1	0.0000
576	C186     1.0330    18.6270     8.7110	C.3	1	fragment1	0.0000
577	C187     0.2530    19.8850     8.4400	C.2	1	fragment1	0.0000
578	C188    -0.3470    20.5800     9.4850	C.2	1	fragment1	0.0000
579	C189     0.0890    20.3890     7.1510	C.2	1	fragment1	0.0000
580	C190    -1.0960    21.7440     9.2630	C.2	1	fragment1	0.0000
581	C191    -0.6530    21.5530     6.9120	C.2	1	fragment1	0.0000
582	C192    -1.2270    22.2540     7.9730	C.2	1	fragment1	0.0000
583	H281     2.8310    20.1980    10.9460	H	1	fragment1	0.0000
584	H282     1.1710    18.7350    10.8730	H	1	fragment1	0.0000
585	H283     0.2980    17.7940     8.7240	H	1	fragment1	0.0000
586	H284     1.7380    18.5010     7.8620	H	1	fragment1	0.0000
587	H285    -0.2330    20.2130    10.4940	H	1	fragment1	0.0000
588	H286     0.5430    19.8710     6.3190	H	1	fragment1	0.0000
589	H287    -1.5720    22.2460    10.0930	H	1	fragment1	0.0000
590	H288    -0.7810    21.9100     5.9010	H	1	fragment1	0.0000
591	H289    -1.7630    23.1750     7.7980	H	1	fragment1	0.0000
592	C193     4.0840    15.2130    12.2030	C.2	1	fragment1	0.0000
593	C194     4.2400    15.7010    10.7700	C.3	1	fragment1	0.0000
594	N57     3.5910    17.0270    10.6630	N.3	1	fragment1	0.0000
595	O52     4.5680    15.8740    13.1630	O.2	1	fragment1	0.0000
596	C195     5.7720    15.8840    10.4930	C.3	1	fragment1	0.0000
597	C196     6.5800    14.5880    10.4250	C.2	1	fragment1	0.0000
598	O53     6.0230    13.5000    10.6630	O.2	1	fragment1	0.0000
599	N58     7.8920    14.6960    10.1270	N.3	1	fragment1	0.0000
600	H290     4.1230    17.7970    11.0050	H	1	fragment1	0.0000
601	H291     3.7930    15.0370    10.0440	H	1	fragment1	0.0000
602	H292     6.2010    16.5100    11.3040	H	1	fragment1	0.0000
603	H293     5.8910    16.4100     9.5230	H	1	fragment1	0.0000
604	H294     8.4610    13.8760    10.0710	H	1	fragment1	0.0000
605	H295     8.2950    15.5960     9.9620	H	1	fragment1	0.0000
606	C197     4.6100    13.0230    14.3550	C.2	1	fragment1	0.0000
607	C198     3.2750    13.5390    13.7550	C.3	1	fragment1	0.0000
608	N59     3.4400    14.0490    12.3750	N.3	1	fragment1	0.0000
609	O54     4.6720    12.8020    15.5700	O.2	1	fragment1	0.0000
610	C199     2.2890    12.3560    13.8400	C.3	1	fragment1	0.0000
611	C200     0.8560    12.7270    13.3720	C.3	1	fragment1	0.0000
612	O55     2.8950    11.2970    13.0760	O.3	1	fragment1	0.0000
613	H296     3.0650    13.5050    11.6280	H	1	fragment1	0.0000
614	H297     2.9180    14.3570    14.3630	H	1	fragment1	0.0000
615	H298     2.1480    12.0330    14.8930	H	1	fragment1	0.0000
616	H299     3.3030    10.7090    13.7160	H	1	fragment1	0.0000
617	H300     0.8760    13.0670    12.3140	H	1	fragment1	0.0000
618	H301     0.4540    13.5500    14.0010	H	1	fragment1	0.0000
619	H302     0.1920    11.8390    13.4470	H	1	fragment1	0.0000
620	C201     7.9540    13.3750    14.3690	C.2	1	fragment1	0.0000
621	C202     6.9380    12.3160    14.0550	C.3	1	fragment1	0.0000
622	N60     5.6730    12.8480    13.5180	N.3	1	fragment1	0.0000
623	O56     9.1300    13.0800    14.6700	O.2	1	fragment1	0.0000
624	C203     7.5350    11.2940    13.0620	C.3	1	fragment1	0.0000
625	C204     6.6520    10.0540    12.9270	C.3	1	fragment1	0.0000
626	C205     7.4260     8.9440    12.2260	C.2	1	fragment1	0.0000
627	O57     8.2630     8.2880    12.8490	O.2	1	fragment1	0.0000
628	N61     7.2560     8.8370    10.8990	N.3	1	fragment1	0.0000
629	H303     5.6440    13.0630    12.5450	H	1	fragment1	0.0000
630	H304     6.7320    11.8460    15.0050	H	1	fragment1	0.0000
631	H305     8.5400    10.9860    13.4200	H	1	fragment1	0.0000
632	H306     7.6400    11.7750    12.0660	H	1	fragment1	0.0000
633	H307     5.7470    10.3020    12.3320	H	1	fragment1	0.0000
634	H308     6.3410     9.7040    13.9350	H	1	fragment1	0.0000
635	H309     7.7400     8.1260    10.3890	H	1	fragment1	0.0000
636	H310     6.6460     9.4680    10.4210	H	1	fragment1	0.0000
637	C206     8.9130    15.7450    16.0270	C.2	1	fragment1	0.0000
638	C207     8.4340    15.6990    14.5570	C.3	1	fragment1	0.0000
639	N62     7.5130    14.6270    14.2830	N.3	1	fragment1	0.0000
640	O58     8.1220    15.6250    16.9520	O.2	1	fragment1	0.0000
641	C208     7.7580    17.0260    14.1930	C.3	1	fragment1	0.0000
642	H311     6.5770    14.8690    14.0390	H	1	fragment1	0.0000
643	H312     9.3250    15.5470    13.9660	H	1	fragment1	0.0000
644	H313     6.8350    17.1630    14.7970	H	1	fragment1	0.0000
645	H314     7.4810    17.0270    13.1170	H	1	fragment1	0.0000
646	H315     8.4470    17.8720    14.4030	H	1	fragment1	0.0000
647	C209    11.7610    17.1730    17.5730	C.2	1	fragment1	0.0000
648	C210    10.7650    16.0650    17.6100	C.3	1	fragment1	0.0000
649	N63    10.2280    15.9300    16.2550	N.3	1	fragment1	0.0000
650	O59    12.3780    17.4260    16.5500	O.2	1	fragment1	0.0000
651	C211    11.4990    14.8480    18.1650	C.3	1	fragment1	0.0000
652	C212    10.5390    13.6900    18.3170	C.3	1	fragment1	0.0000
653	O60    12.4820    14.5100    17.2340	O.3	1	fragment1	0.0000
654	H316    10.8920    15.9830    15.5130	H	1	fragment1	0.0000
655	H317     9.9280    16.2930    18.2520	H	1	fragment1	0.0000
656	H318    11.9740    15.0900    19.1400	H	1	fragment1	0.0000
657	H319    12.7360    15.3320    16.8070	H	1	fragment1	0.0000
658	H320    10.1000    13.4260    17.3310	H	1	fragment1	0.0000
659	H321     9.7160    13.9700    19.0090	H	1	fragment1	0.0000
660	H322    11.0770    12.8030    18.7140	H	1	fragment1	0.0000
661	C213    13.2790    19.0590    20.2760	C.2	1	fragment1	0.0000
662	C214    12.8090    18.9780    18.8470	C.3	1	fragment1	0.0000
663	N64    11.8850    17.8530    18.6750	N.3	1	fragment1	0.0000
664	O61    12.4590    19.1340    21.1780	O.2	1	fragment1	0.0000
665	C215    12.1000    20.2970    18.4970	C.3	1	fragment1	0.0000
666	C216    11.8520    20.3270    17.0030	C.2	1	fragment1	0.0000
667	O62    12.7800    20.1990    16.2060	O.2	1	fragment1	0.0000
668	N65    10.5990    20.4120    16.6090	N.3	1	fragment1	0.0000
669	H323    11.3390    17.6310    19.4780	H	1	fragment1	0.0000
670	H324    13.6570    18.8210    18.1970	H	1	fragment1	0.0000
671	H325    12.7370    21.1600    18.7860	H	1	fragment1	0.0000
672	H326    11.1310    20.3630    19.0370	H	1	fragment1	0.0000
673	H327     9.8640    20.4530    17.2860	H	1	fragment1	0.0000
674	H328    10.3820    20.4350    15.6330	H	1	fragment1	0.0000
675	C217    15.3250    20.5240    22.3330	C.2	1	fragment1	0.0000
676	C218    15.1060    19.0950    21.8760	C.3	1	fragment1	0.0000
677	N66    14.6090    19.0490    20.5040	N.3	1	fragment1	0.0000
678	O63    15.7070    21.3620    21.5310	O.2	1	fragment1	0.0000
679	C219    16.3910    18.3050    22.0210	C.3	1	fragment1	0.0000
680	C220    16.8090    18.2010    23.4880	C.3	1	fragment1	0.0000
681	C221    16.5140    16.8220    24.0340	C.3	1	fragment1	0.0000
682	C222    18.3690    15.4480    23.2360	C.2	1	fragment1	0.0000
683	N67    17.0870    15.7910    23.1880	N.3	1	fragment1	0.0000
684	N68    19.2230    16.0220    24.0860	N.3	1	fragment1	0.0000
685	N69    18.8060    14.4950    22.4160	N.2	1	fragment1	0.0000
686	H329    15.2880    19.0110    19.7750	H	1	fragment1	0.0000
687	H330    14.3420    18.6850    22.5200	H	1	fragment1	0.0000
688	H331    17.1970    18.8090    21.4460	H	1	fragment1	0.0000
689	H332    16.2410    17.2840    21.6100	H	1	fragment1	0.0000
690	H333    16.2540    18.9580    24.0820	H	1	fragment1	0.0000
691	H334    17.8980    18.4050    23.5750	H	1	fragment1	0.0000
692	H335    15.4160    16.6590    24.0750	H	1	fragment1	0.0000
693	H336    16.9540    16.7150    25.0480	H	1	fragment1	0.0000
694	H337    16.4900    15.3180    22.5400	H	1	fragment1	0.0000
695	H338    18.9030    16.7330    24.7120	H	1	fragment1	0.0000
696	H339    20.1830    15.7410    24.0970	H	1	fragment1	0.0000
697	H340    18.2170    14.1580    21.6820	H	1	fragment1	0.0000
698	H341    19.7240    14.1160    22.5340	H	1	fragment1	0.0000
699	C223    16.5380    22.2990    24.8510	C.2	1	fragment1	0.0000
700	C224    15.2750    22.1990    24.0530	C.3	1	fragment1	0.0000
701	N70    15.0610    20.8270    23.5940	N.3	1	fragment1	0.0000
702	O64    17.0690    21.2920    25.3010	O.2	1	fragment1	0.0000
703	C225    14.0750    22.7210    24.8460	C.3	1	fragment1	0.0000
704	C226    12.8220    22.5570    23.9860	C.2	1	fragment1	0.0000
705	O65    11.9220    21.7660    24.2750	O.2	1	fragment1	0.0000
706	N71    12.8000    23.2560    22.8800	N.3	1	fragment1	0.0000
707	H342    14.7200    20.1670    24.2590	H	1	fragment1	0.0000
708	H343    15.4410    22.8160    23.1830	H	1	fragment1	0.0000
709	H344    14.2200    23.7940    25.0940	H	1	fragment1	0.0000
710	H345    13.9600    22.1420    25.7870	H	1	fragment1	0.0000
711	H346    12.0110    23.1980    22.2680	H	1	fragment1	0.0000
712	H347    13.5720    23.8480    22.6470	H	1	fragment1	0.0000
713	C227    18.1990    23.2150    27.2320	C.2	1	fragment1	0.0000
714	C228    18.2700    23.7070    25.8080	C.3	1	fragment1	0.0000
715	N72    17.0180    23.5090    25.0600	N.3	1	fragment1	0.0000
716	O66    19.1770    22.7450    27.8100	O.2	1	fragment1	0.0000
717	C229    18.7010    25.1790    25.7890	C.3	1	fragment1	0.0000
718	C230    18.7940    25.6820    24.3510	C.3	1	fragment1	0.0000
719	O67    17.7580    25.9420    26.5050	O.3	1	fragment1	0.0000
720	H348    16.5630    24.3310    24.7270	H	1	fragment1	0.0000
721	H349    19.0300    23.0900    25.3520	H	1	fragment1	0.0000
722	H350    19.6980    25.2900    26.2670	H	1	fragment1	0.0000
723	H351    17.8680    25.7000    27.4280	H	1	fragment1	0.0000
724	H352    17.7780    25.7620    23.9080	H	1	fragment1	0.0000
725	H353    19.3920    24.9730    23.7400	H	1	fragment1	0.0000
726	H354    19.2690    26.6860    24.3320	H	1	fragment1	0.0000
727	C231    16.7410    21.2950    29.1820	C.2	1	fragment1	0.0000
728	C232    16.7990    22.8050    29.1330	C.3	1	fragment1	0.0000
729	N73    17.0000    23.2930    27.7860	N.3	1	fragment1	0.0000
730	O68    16.5950    20.7510    30.2470	O.2	1	fragment1	0.0000
731	C233    15.5570    23.3620    29.7810	C.3	1	fragment1	0.0000
732	C234    14.2910    22.7450    29.3040	C.2	1	fragment1	0.0000
733	O69    14.1530    22.0550    28.3110	O.2	1	fragment1	0.0000
734	O70    13.3330    23.0040    30.0910	O.3	1	fragment1	0.0000
735	H355    16.2080    23.6780    27.3190	H	1	fragment1	0.0000
736	H356    17.6680    23.0830    29.7110	H	1	fragment1	0.0000
737	H357    15.5090    24.4520    29.5740	H	1	fragment1	0.0000
738	H358    15.6280    23.2010    30.8780	H	1	fragment1	0.0000
739	C235    15.5380    18.5220    27.8610	C.2	1	fragment1	0.0000
740	C236    16.8690    19.1820    28.0160	C.3	1	fragment1	0.0000
741	N74    16.8530    20.6280    28.0340	N.3	1	fragment1	0.0000
742	O71    15.4310    17.2840    27.7280	O.2	1	fragment1	0.0000
743	H359    16.9290    21.0860    27.1520	H	1	fragment1	0.0000
744	H360    17.3020    18.8570    28.9500	H	1	fragment1	0.0000
745	H361    17.4950    18.8810    27.1900	H	1	fragment1	0.0000
746	C237    13.1600    18.4790    26.1120	C.2	1	fragment1	0.0000
747	C238    13.2190    18.6970    27.6430	C.3	1	fragment1	0.0000
748	N75    14.4990    19.3140    27.8700	N.3	1	fragment1	0.0000
749	O72    14.0870    18.8680    25.3890	O.2	1	fragment1	0.0000
750	C239    12.1190    19.5910    28.1360	C.3	1	fragment1	0.0000
751	O73    12.1170    20.7380    27.3110	O.3	1	fragment1	0.0000
752	H362    14.5360    20.2980    28.0210	H	1	fragment1	0.0000
753	H363    13.2020    17.7540    28.1680	H	1	fragment1	0.0000
754	H364    12.3030    19.8900    29.1900	H	1	fragment1	0.0000
755	H365    11.1370    19.0770    28.0630	H	1	fragment1	0.0000
756	H366    12.8230    21.3000    27.6380	H	1	fragment1	0.0000
757	C240    10.5070    17.8010    23.8260	C.2	1	fragment1	0.0000
758	C241    11.9940    17.5560    24.1460	C.3	1	fragment1	0.0000
759	N76    12.1260    17.7980    25.6000	N.3	1	fragment1	0.0000
760	O74     9.6690    17.5570    24.7040	O.2	1	fragment1	0.0000
761	C242    12.4530    16.1070    23.7260	C.3	1	fragment1	0.0000
762	C243    12.2850    15.8840    22.2160	C.3	1	fragment1	0.0000
763	O75    13.8420    15.8850    24.0300	O.3	1	fragment1	0.0000
764	H367    11.4010    17.4250    26.1740	H	1	fragment1	0.0000
765	H368    12.5980    18.2930    23.6380	H	1	fragment1	0.0000
766	H369    11.8470    15.3540    24.2740	H	1	fragment1	0.0000
767	H370    13.9590    16.1520    24.9450	H	1	fragment1	0.0000
768	H371    12.8970    16.6190    21.6510	H	1	fragment1	0.0000
769	H372    11.2190    16.0150    21.9310	H	1	fragment1	0.0000
770	H373    12.6210    14.8600    21.9450	H	1	fragment1	0.0000
771	C244     8.4870    17.4580    21.1340	C.2	1	fragment1	0.0000
772	C245     8.8570    18.5740    22.1040	C.3	1	fragment1	0.0000
773	N77    10.2110    18.3110    22.6140	N.3	1	fragment1	0.0000
774	O76     9.3120    17.0150    20.3380	O.2	1	fragment1	0.0000
775	C246     8.7940    19.9170    21.3610	C.3	1	fragment1	0.0000
776	C247     9.0610    21.0570    22.2590	C.2	1	fragment1	0.0000
777	O77     9.0510    21.0310    23.4950	O.2	1	fragment1	0.0000
778	O78     9.2230    22.1140    21.5690	O.3	1	fragment1	0.0000
779	H374    10.9400    18.5440    21.9770	H	1	fragment1	0.0000
780	H375     8.1810    18.5820    22.9460	H	1	fragment1	0.0000
781	H376     7.7830    20.0420    20.9180	H	1	fragment1	0.0000
782	H377     9.5510    19.9190    20.5480	H	1	fragment1	0.0000
783	C248     5.6110    16.0080    19.6520	C.2	1	fragment1	0.0000
784	C249     6.8750    15.8570    20.4060	C.3	1	fragment1	0.0000
785	N78     7.2540    17.0020    21.1900	N.3	1	fragment1	0.0000
786	O79     4.6000    16.4850    20.1760	O.2	1	fragment1	0.0000
787	C250     6.5670    14.7090    21.3830	C.3	1	fragment1	0.0000
788	C251     7.7870    14.2330    22.1180	C.2	1	fragment1	0.0000
789	C252     8.2590    14.8920    23.2580	C.2	1	fragment1	0.0000
790	C253     8.4520    13.0890    21.6790	C.2	1	fragment1	0.0000
791	C254     9.4410    14.5040    23.8880	C.2	1	fragment1	0.0000
792	C255     9.6300    12.6640    22.2890	C.2	1	fragment1	0.0000
793	C256    10.0780    13.3530    23.4130	C.2	1	fragment1	0.0000
794	O80    11.1780    12.9180    24.0370	O.3	1	fragment1	0.0000
795	H378     6.5470    17.4150    21.7600	H	1	fragment1	0.0000
796	H379     7.6910    15.5990    19.7480	H	1	fragment1	0.0000
797	H380     6.1560    13.8430    20.8210	H	1	fragment1	0.0000
798	H381     5.8330    15.0540    22.1420	H	1	fragment1	0.0000
799	H382     7.6950    15.7210    23.6600	H	1	fragment1	0.0000
800	H383     8.0470    12.5230    20.8530	H	1	fragment1	0.0000
801	H384     9.8490    15.0710    24.7110	H	1	fragment1	0.0000
802	H385    10.1820    11.8210    21.9000	H	1	fragment1	0.0000
803	H386    11.1890    13.2980    24.9180	H	1	fragment1	0.0000
804	C257     3.9730    16.6630    16.8740	C.2	1	fragment1	0.0000
805	C258     4.4310    15.4430    17.6330	C.3	1	fragment1	0.0000
806	N79     5.6620    15.5260    18.4250	N.3	1	fragment1	0.0000
807	O81     4.5990    17.6940    16.8030	O.2	1	fragment1	0.0000
808	H387     6.5040    15.2090    17.9960	H	1	fragment1	0.0000
809	H388     3.6450    15.1750    18.3220	H	1	fragment1	0.0000
810	H389     4.5850    14.6520    16.9150	H	1	fragment1	0.0000
811	C259     1.9580    18.8320    16.2870	C.2	1	fragment1	0.0000
812	C260     2.1400    17.5110    15.5590	C.3	1	fragment1	0.0000
813	N80     2.7640    16.5220    16.3710	N.3	1	fragment1	0.0000
814	O82     1.9570    19.8680    15.6530	O.2	1	fragment1	0.0000
815	C261     0.8530    16.8950    14.9330	C.3	1	fragment1	0.0000
816	C262     0.4640    17.5540    13.6330	C.3	1	fragment1	0.0000
817	C263    -0.3020    16.8990    15.9250	C.3	1	fragment1	0.0000
818	H390     2.2230    15.7020    16.5400	H	1	fragment1	0.0000
819	H391     2.8350    17.8140    14.7900	H	1	fragment1	0.0000
820	H392     1.0630    15.8490    14.6230	H	1	fragment1	0.0000
821	H393    -0.4610    17.0850    11.7500	H	1	fragment1	0.0000
822	H394    -0.2490    18.3790    13.8420	H	1	fragment1	0.0000
823	H395    -0.6510    17.9390    16.1010	H	1	fragment1	0.0000
824	H396     0.0300    16.4680    16.8940	H	1	fragment1	0.0000
825	H397    -1.1490    16.3040    15.5220	H	1	fragment1	0.0000
826	C264     2.7920    20.2860    19.2810	C.2	1	fragment1	0.0000
827	C265     1.5980    19.9780    18.4170	C.3	1	fragment1	0.0000
828	N81     1.7840    18.7770    17.6190	N.3	1	fragment1	0.0000
829	O83     2.7730    21.2110    20.0870	O.2	1	fragment1	0.0000
830	C266     0.2370    20.0750    19.1410	C.3	1	fragment1	0.0000
831	C267    -0.9450    20.1600    18.1590	C.3	1	fragment1	0.0000
832	C268    -2.2530    19.8010    18.8830	C.3	1	fragment1	0.0000
833	C269    -1.0400    21.5760    17.5860	C.3	1	fragment1	0.0000
834	H398     1.7750    17.9130    18.1170	H	1	fragment1	0.0000
835	H399     1.7060    20.8190    17.7490	H	1	fragment1	0.0000
836	H400     0.2360    20.9810    19.7840	H	1	fragment1	0.0000
837	H401     0.1070    19.1780    19.7830	H	1	fragment1	0.0000
838	H402    -0.7800    19.4530    17.3180	H	1	fragment1	0.0000
839	H403    -2.4300    20.5060    19.7230	H	1	fragment1	0.0000
840	H404    -2.1880    18.7700    19.2930	H	1	fragment1	0.0000
841	H405    -3.1070    19.8690    18.1760	H	1	fragment1	0.0000
842	H406    -0.1030    21.8340    17.0480	H	1	fragment1	0.0000
843	H407    -1.1890    22.3080    18.4090	H	1	fragment1	0.0000
844	H408    -1.8880    21.6390    16.8710	H	1	fragment1	0.0000
845	C270     4.8950    19.8750    21.2510	C.2	1	fragment1	0.0000
846	C271     5.0710    19.7640    19.7520	C.3	1	fragment1	0.0000
847	N82     3.8610    19.5130    19.0730	N.3	1	fragment1	0.0000
848	O84     5.2760    20.8790    21.8550	O.2	1	fragment1	0.0000
849	C272     5.7140    21.0060    19.1750	C.3	1	fragment1	0.0000
850	C273     6.3760    20.6870    17.8000	C.3	1	fragment1	0.0000
851	C274     7.5410    19.7270    17.8740	C.2	1	fragment1	0.0000
852	O85     8.6520    20.2090    18.0830	O.2	1	fragment1	0.0000
853	N83     7.3130    18.4360    17.5610	N.3	1	fragment1	0.0000
854	H409     3.8530    18.7410    18.4430	H	1	fragment1	0.0000
855	H410     5.7170    18.9070    19.6280	H	1	fragment1	0.0000
856	H411     6.4870    21.3820    19.8780	H	1	fragment1	0.0000
857	H412     4.9410    21.7920    19.0390	H	1	fragment1	0.0000
858	H413     6.7410    21.6370    17.3560	H	1	fragment1	0.0000
859	H414     5.6070    20.2430    17.1330	H	1	fragment1	0.0000
860	H415     8.0600    17.7730    17.5990	H	1	fragment1	0.0000
861	H416     6.3960    18.1410    17.2910	H	1	fragment1	0.0000
862	C275     5.2510    18.5520    24.0350	C.2	1	fragment1	0.0000
863	C276     3.9990    18.8520    23.2260	C.3	1	fragment1	0.0000
864	N84     4.2710    18.8600    21.8090	N.3	1	fragment1	0.0000
865	O86     5.9850    17.6100    23.7190	O.2	1	fragment1	0.0000
866	C277     2.8400    17.9180    23.5080	C.3	1	fragment1	0.0000
867	C278     1.5880    18.5250    22.9110	C.3	1	fragment1	0.0000
868	C279     2.6690    17.6920    25.0230	C.3	1	fragment1	0.0000
869	H417     3.9640    18.0660    21.2900	H	1	fragment1	0.0000
870	H418     3.7600    19.8590    23.5330	H	1	fragment1	0.0000
871	H419     3.0270    16.9420    23.0110	H	1	fragment1	0.0000
872	H420    -0.4840    17.9870    22.4810	H	1	fragment1	0.0000
873	H421     1.3780    19.4920    23.4160	H	1	fragment1	0.0000
874	H422     2.4720    18.6590    25.5330	H	1	fragment1	0.0000
875	H423     3.5960    17.2500    25.4460	H	1	fragment1	0.0000
876	H424     1.8110    17.0110    25.2090	H	1	fragment1	0.0000
877	C280     6.8370    18.3160    27.0270	C.2	1	fragment1	0.0000
878	C281     6.7030    19.3710    25.9260	C.3	1	fragment1	0.0000
879	N85     5.4840    19.3860    25.0780	N.3	1	fragment1	0.0000
880	O87     5.9360    18.1060    27.7940	O.2	1	fragment1	0.0000
881	C282     7.1060    20.7900    26.3760	C.3	1	fragment1	0.0000
882	C283     8.4410    20.8560    27.0660	C.2	1	fragment1	0.0000
883	O88     8.5370    20.7430    28.2920	O.2	1	fragment1	0.0000
884	N86     9.4620    21.0860    26.2920	N.3	1	fragment1	0.0000
885	H425     4.8140    20.0780    25.3310	H	1	fragment1	0.0000
886	H426     7.5000    18.9260    25.3490	H	1	fragment1	0.0000
887	H427     6.3340    21.1720    27.0770	H	1	fragment1	0.0000
888	H428     7.1450    21.4480    25.4820	H	1	fragment1	0.0000
889	H429     9.3270    21.2050    25.3080	H	1	fragment1	0.0000
890	H430    10.3810    21.1430    26.6810	H	1	fragment1	0.0000
891	C284     8.5140    17.1250    29.4450	C.2	1	fragment1	0.0000
892	C285     8.2820    16.6070    28.0360	C.3	1	fragment1	0.0000
893	N87     8.0210    17.6680    27.0880	N.3	1	fragment1	0.0000
894	O89     8.5090    16.3620    30.4110	O.2	1	fragment1	0.0000
895	C286     9.4140    15.7030    27.5810	C.3	1	fragment1	0.0000
896	O90    10.6610    16.3950    27.7030	O.3	1	fragment1	0.0000
897	H431     8.7740    17.8950    26.4760	H	1	fragment1	0.0000
898	H432     7.3730    16.0340    28.1450	H	1	fragment1	0.0000
899	H433     9.2630    15.4140    26.5190	H	1	fragment1	0.0000
900	H434     9.4450    14.7890    28.2120	H	1	fragment1	0.0000
901	H435    11.3350    15.7800    27.4040	H	1	fragment1	0.0000
902	C287     7.6630    18.9410    31.7650	C.2	1	fragment1	0.0000
903	C288     8.9250    18.9840    30.9410	C.3	1	fragment1	0.0000
904	N88     8.7210    18.4280    29.5890	N.3	1	fragment1	0.0000
905	O91     7.7450    18.7720    32.9560	O.2	1	fragment1	0.0000
906	C289     9.5330    20.4000    30.9640	C.3	1	fragment1	0.0000
907	C290     9.3880    21.0280    32.3440	C.3	1	fragment1	0.0000
908	C291    10.5200    21.9690    32.7570	C.3	1	fragment1	0.0000
909	C292    12.6610    20.7350    32.5620	C.2	1	fragment1	0.0000
910	N89    11.8080    21.6710    32.1510	N.3	1	fragment1	0.0000
911	N90    12.4200    19.9190    33.5970	N.3	1	fragment1	0.0000
912	N91    13.7990    20.6110    31.8910	N.2	1	fragment1	0.0000
913	H436     8.7470    19.0660    28.8230	H	1	fragment1	0.0000
914	H437     9.5790    18.3050    31.4670	H	1	fragment1	0.0000
915	H438     9.0130    21.0350    30.2150	H	1	fragment1	0.0000
916	H439    10.6100    20.3410    30.6990	H	1	fragment1	0.0000
917	H440     9.3300    20.2090    33.0910	H	1	fragment1	0.0000
918	H441     8.4380    21.6020    32.3640	H	1	fragment1	0.0000
919	H442    10.6570    21.9090    33.8580	H	1	fragment1	0.0000
920	H443    10.2550    23.0060    32.4610	H	1	fragment1	0.0000
921	H444    12.0760    22.2160    31.3580	H	1	fragment1	0.0000
922	H445    11.5620    19.9960    34.1050	H	1	fragment1	0.0000
923	H446    13.0980    19.2330    33.8620	H	1	fragment1	0.0000
924	H447    13.9870    21.2080    31.1110	H	1	fragment1	0.0000
925	H448    14.4690    19.9210    32.1650	H	1	fragment1	0.0000
926	C293     4.2420    17.9000    31.5340	C.2	1	fragment1	0.0000
927	C294     5.2400    18.9650    31.8900	C.3	1	fragment1	0.0000
928	N92     6.4730    19.0120    31.1260	N.3	1	fragment1	0.0000
929	O92     3.5140    17.4060    32.3930	O.2	1	fragment1	0.0000
930	C295     4.4840    20.3180    31.7570	C.3	1	fragment1	0.0000
931	C296     5.4140    21.4510    31.9620	C.2	1	fragment1	0.0000
932	C297     6.1570    22.0850    31.0210	C.2	1	fragment1	0.0000
933	C298     5.7880    21.9940    33.2060	C.2	1	fragment1	0.0000
934	C299     6.7480    22.9910    32.9490	C.2	1	fragment1	0.0000
935	C300     5.3680    21.7540    34.5090	C.2	1	fragment1	0.0000
936	C301     7.3110    23.7440    33.9700	C.2	1	fragment1	0.0000
937	C302     5.9190    22.5000    35.5190	C.2	1	fragment1	0.0000
938	C303     6.8900    23.4660    35.2490	C.2	1	fragment1	0.0000
939	N93     6.9530    23.0230    31.6040	N.3	1	fragment1	0.0000
940	H449     6.3910    19.0970    30.1360	H	1	fragment1	0.0000
941	H450     5.4890    18.7710    32.9230	H	1	fragment1	0.0000
942	H451     3.6760    20.3690    32.5180	H	1	fragment1	0.0000
943	H452     4.0350    20.3950    30.7440	H	1	fragment1	0.0000
944	H453     6.1220    21.8760    29.9620	H	1	fragment1	0.0000
945	H454     7.5680    23.6190    31.1360	H	1	fragment1	0.0000
946	H455     4.6270    21.0030    34.7390	H	1	fragment1	0.0000
947	H456     8.0450    24.5150    33.7880	H	1	fragment1	0.0000
948	H457     5.5970    22.3380    36.5370	H	1	fragment1	0.0000
949	H458     7.3250    24.0130    36.0720	H	1	fragment1	0.0000
950	C304     3.1520    15.4530    29.4400	C.2	1	fragment1	0.0000
951	C305     3.0860    16.9240    29.6700	C.3	1	fragment1	0.0000
952	N94     4.1590    17.6430    30.2310	N.3	1	fragment1	0.0000
953	O93     2.1350    14.7840    29.4880	O.2	1	fragment1	0.0000
954	C306     2.6970    17.7200    28.4100	C.3	1	fragment1	0.0000
955	C307     2.3750    19.1700    28.7880	C.2	1	fragment1	0.0000
956	C308     3.1080    20.2550    28.4790	C.2	1	fragment1	0.0000
957	C309     1.2680    19.6450    29.5930	C.2	1	fragment1	0.0000
958	C310     1.3710    21.0470    29.6560	C.2	1	fragment1	0.0000
959	C311     0.1420    19.0200    30.1860	C.2	1	fragment1	0.0000
960	C312     0.4350    21.8290    30.3660	C.2	1	fragment1	0.0000
961	C313    -0.7890    19.7940    30.8660	C.2	1	fragment1	0.0000
962	C314    -0.6400    21.1940    30.9350	C.2	1	fragment1	0.0000
963	N95     2.4910    21.3950    28.9400	N.3	1	fragment1	0.0000
964	H459     4.8580    17.9500    29.5900	H	1	fragment1	0.0000
965	H460     2.2730    16.8760    30.3790	H	1	fragment1	0.0000
966	H461     1.8040    17.2580    27.9370	H	1	fragment1	0.0000
967	H462     3.5390    17.7090    27.6860	H	1	fragment1	0.0000
968	H463     4.0470    20.2340    27.9450	H	1	fragment1	0.0000
969	H464     2.8000    22.3070    28.7830	H	1	fragment1	0.0000
970	H465    -0.0060    17.9520    30.1190	H	1	fragment1	0.0000
971	H466     0.5450    22.8980    30.4690	H	1	fragment1	0.0000
972	H467    -1.6330    19.3200    31.3450	H	1	fragment1	0.0000
973	H468    -1.3890    21.7800    31.4470	H	1	fragment1	0.0000
974	C315     5.6870    12.9120    29.4400	C.2	1	fragment1	0.0000
975	C316     4.4060    13.4860    28.8680	C.3	1	fragment1	0.0000
976	N96     4.3140    14.9440    29.1690	N.3	1	fragment1	0.0000
977	O94     6.5970    13.6650    29.7240	O.2	1	fragment1	0.0000
978	C317     4.3500    13.1870    27.3290	C.3	1	fragment1	0.0000
979	S4     5.6430    14.0610    26.3270	S.3	1	fragment1	0.0000
980	H469     5.1580    15.4740    29.1500	H	1	fragment1	0.0000
981	H470     3.5820    12.9980    29.3670	H	1	fragment1	0.0000
982	H471     3.3480    13.4850    26.9570	H	1	fragment1	0.0000
983	H472     4.4670    12.0920    27.1870	H	1	fragment1	0.0000
984	C318     7.9790    10.5050    28.9590	C.2	1	fragment1	0.0000
985	C319     7.0960    11.0930    30.0610	C.3	1	fragment1	0.0000
986	N97     5.8220    11.5900    29.5540	N.3	1	fragment1	0.0000
987	O95     7.5260     9.6690    28.1950	O.2	1	fragment1	0.0000
988	C320     6.8110    10.0690    31.1800	C.3	1	fragment1	0.0000
989	C321     8.0700     9.3830    31.5760	C.2	1	fragment1	0.0000
990	O96     9.0230    10.0460    31.9280	O.2	1	fragment1	0.0000
991	N98     8.1250     8.0820    31.3640	N.3	1	fragment1	0.0000
992	H473     5.1150    10.9290    29.3170	H	1	fragment1	0.0000
993	H474     7.6650    11.9280    30.4410	H	1	fragment1	0.0000
994	H475     6.0820     9.3130    30.8180	H	1	fragment1	0.0000
995	H476     6.3860    10.5910    32.0640	H	1	fragment1	0.0000
996	H477     8.9470     7.5690    31.6110	H	1	fragment1	0.0000
997	H478     7.3440     7.6080    30.9560	H	1	fragment1	0.0000
998	C322    11.4040     9.7210    28.4990	C.2	1	fragment1	0.0000
999	C323    10.1520    10.3930    27.8720	C.3	1	fragment1	0.0000
1000	N99     9.2430    10.9380    28.8760	N.3	1	fragment1	0.0000
1001	O97    12.3870     9.3830    27.8470	O.2	1	fragment1	0.0000
1002	C324    10.5850    11.4660    26.8640	C.3	1	fragment1	0.0000
1003	C325    11.4050    12.5700    27.4770	C.2	1	fragment1	0.0000
1004	O98    11.6930    12.6510    28.6630	O.2	1	fragment1	0.0000
1005	O99    11.7560    13.4420    26.5990	O.3	1	fragment1	0.0000
1006	H479     9.6130    11.6370    29.4830	H	1	fragment1	0.0000
1007	H480     9.6390     9.5910    27.3630	H	1	fragment1	0.0000
1008	H481     9.6770    11.9170    26.4110	H	1	fragment1	0.0000
1009	H482    11.1900    10.9840    26.0670	H	1	fragment1	0.0000
1010	C326    13.6710     9.6300    30.6300	C.2	1	fragment1	0.0000
1011	C327    12.3910     8.8930    30.5160	C.3	1	fragment1	0.0000
1012	N100    11.3620     9.5650    29.7910	N.3	1	fragment1	0.0000
1013	O100    14.6180     9.0910    31.1830	O.2	1	fragment1	0.0000
1014	H483    10.6030     9.9110    30.3370	H	1	fragment1	0.0000
1015	H484    12.5800     7.9580    30.0100	H	1	fragment1	0.0000
1016	H485    12.0140     8.7090    31.5110	H	1	fragment1	0.0000
1017	C328    14.9290    13.0120    30.4740	C.2	1	fragment1	0.0000
1018	C329    15.0110    11.5520    30.1920	C.3	1	fragment1	0.0000
1019	N101    13.7350    10.8500    30.1130	N.3	1	fragment1	0.0000
1020	O101    15.8860    13.7240    30.1620	O.2	1	fragment1	0.0000
1021	C330    15.8850    11.3460    28.9730	C.3	1	fragment1	0.0000
1022	C331    15.2840    11.8810    27.6650	C.3	1	fragment1	0.0000
1023	C332    16.3660    12.1660    26.6000	C.3	1	fragment1	0.0000
1024	C333    16.3260    12.9580    24.2130	C.2	1	fragment1	0.0000
1025	N102    15.9060    13.0090    25.4810	N.3	1	fragment1	0.0000
1026	N103    17.2800    12.0820    23.8790	N.3	1	fragment1	0.0000
1027	N104    15.8170    13.7870    23.2880	N.2	1	fragment1	0.0000
1028	H486    12.9690    11.3140    29.6760	H	1	fragment1	0.0000
1029	H487    15.5230    11.1910    31.0710	H	1	fragment1	0.0000
1030	H488    16.0680    10.2570    28.8540	H	1	fragment1	0.0000
1031	H489    16.8550    11.8580    29.1470	H	1	fragment1	0.0000
1032	H490    14.7330    12.8210    27.8800	H	1	fragment1	0.0000
1033	H491    14.5710    11.1300    27.2630	H	1	fragment1	0.0000
1034	H492    16.7100    11.2040    26.1640	H	1	fragment1	0.0000
1035	H493    17.2180    12.6950    27.0790	H	1	fragment1	0.0000
1036	H494    15.2070    13.6900    25.6930	H	1	fragment1	0.0000
1037	H495    17.6690    11.4770    24.5740	H	1	fragment1	0.0000
1038	H496    17.6050    12.0320    22.9340	H	1	fragment1	0.0000
1039	H497    15.2310    14.5480    23.5670	H	1	fragment1	0.0000
1040	H498    16.0240    13.6440    22.3200	H	1	fragment1	0.0000
1041	C334    13.4490    14.8320    33.0190	C.2	1	fragment1	0.0000
1042	C335    13.6050    14.8330    31.4660	C.3	1	fragment1	0.0000
1043	N105    13.8070    13.4360    31.0600	N.3	1	fragment1	0.0000
1044	O102    12.3660    14.6340    33.5580	O.2	1	fragment1	0.0000
1045	C336    12.4230    15.5010    30.7000	C.3	1	fragment1	0.0000
1046	C337    12.3640    17.0300    30.9160	C.3	1	fragment1	0.0000
1047	O103    12.5530    15.2380    29.3040	O.3	1	fragment1	0.0000
1048	H499    13.0490    12.8170    31.2500	H	1	fragment1	0.0000
1049	H500    14.5220    15.3680    31.2680	H	1	fragment1	0.0000
1050	H501    11.4570    15.0860    31.0580	H	1	fragment1	0.0000
1051	H502    12.3720    14.3020    29.1930	H	1	fragment1	0.0000
1052	H503    13.3040    17.5030    30.5590	H	1	fragment1	0.0000
1053	H504    12.2420    17.2550    31.9970	H	1	fragment1	0.0000
1054	H505    11.5120    17.4600    30.3460	H	1	fragment1	0.0000
1055	C338    13.5970    15.9840    35.7390	C.2	1	fragment1	0.0000
1056	C339    14.4890    14.9110    35.1890	C.3	1	fragment1	0.0000
1057	N106    14.5580    14.9510    33.7380	N.3	1	fragment1	0.0000
1058	O104    13.7020    17.1520    35.3770	O.2	1	fragment1	0.0000
1059	C340    15.8910    15.1930    35.7260	C.3	1	fragment1	0.0000
1060	C341    16.7920    15.4150    34.5230	C.3	1	fragment1	0.0000
1061	C342    15.9510    15.2440    33.2720	C.3	1	fragment1	0.0000
1062	H506    14.0930    13.9580    35.4970	H	1	fragment1	0.0000
1063	H507    16.2540    14.3300    36.3240	H	1	fragment1	0.0000
1064	H508    15.8810    16.0980    36.3710	H	1	fragment1	0.0000
1065	H509    17.2230    16.4380    34.5540	H	1	fragment1	0.0000
1066	H510    17.6220    14.6760    34.5280	H	1	fragment1	0.0000
1067	H511    15.9490    16.1750    32.6660	H	1	fragment1	0.0000
1068	H512    16.3210    14.3950    32.6590	H	1	fragment1	0.0000
1069	C343    10.8940    17.0680    36.2110	C.2	1	fragment1	0.0000
1070	C344    11.8860    16.5750    37.2270	C.3	1	fragment1	0.0000
1071	N107    12.7470    15.5910    36.6470	N.3	1	fragment1	0.0000
1072	O105    10.7200    18.2730    36.0280	O.2	1	fragment1	0.0000
1073	H513    12.6610    14.6490    36.9610	H	1	fragment1	0.0000
1074	H514    12.4920    17.4000    37.5720	H	1	fragment1	0.0000
1075	H515    11.3620    16.1250    38.0570	H	1	fragment1	0.0000
1076	C345     7.8720    15.8330    35.2420	C.2	1	fragment1	0.0000
1077	C346     9.2220    16.2720    34.5600	C.3	1	fragment1	0.0000
1078	N108    10.2860    16.1010    35.5440	N.3	1	fragment1	0.0000
1079	O106     7.8530    14.9690    36.1230	O.2	1	fragment1	0.0000
1080	C347     9.6020    15.4900    33.3290	C.3	1	fragment1	0.0000
1081	O107     9.2380    14.1080    33.4620	O.3	1	fragment1	0.0000
1082	H516    10.5470    15.1520    35.6960	H	1	fragment1	0.0000
1083	H517     9.1220    17.3230    34.3350	H	1	fragment1	0.0000
1084	H518    10.7000    15.5540    33.1730	H	1	fragment1	0.0000
1085	H519     9.0770    15.9110    32.4450	H	1	fragment1	0.0000
1086	H520    10.0430    13.6450    33.7050	H	1	fragment1	0.0000
1087	C348     4.5580    15.0710    34.9790	C.2	1	fragment1	0.0000
1088	C349     5.4870    16.1150    35.5700	C.3	1	fragment1	0.0000
1089	N109     6.7320    16.4120    34.8760	N.3	1	fragment1	0.0000
1090	O108     3.7760    14.4450    35.7020	O.2	1	fragment1	0.0000
1091	C350     4.7530    17.4130    35.8790	C.3	1	fragment1	0.0000
1092	C351     5.3860    18.1610    37.0520	C.3	1	fragment1	0.0000
1093	C352     4.4250    19.1090    37.7880	C.3	1	fragment1	0.0000
1094	C353     4.3000    20.5580    39.8670	C.2	1	fragment1	0.0000
1095	N110     4.9240    19.6350    39.0870	N.3	1	fragment1	0.0000
1096	N111     3.1230    21.1080    39.5210	N.3	1	fragment1	0.0000
1097	N112     4.8730    20.9500    41.0220	N.2	1	fragment1	0.0000
1098	H521     6.6790    17.0640    34.1240	H	1	fragment1	0.0000
1099	H522     5.7240    15.5870    36.4820	H	1	fragment1	0.0000
1100	H523     3.6960    17.1800    36.1270	H	1	fragment1	0.0000
1101	H524     4.7760    18.0650    34.9800	H	1	fragment1	0.0000
1102	H525     6.2400    18.7570    36.6680	H	1	fragment1	0.0000
1103	H526     5.7670    17.4140    37.7800	H	1	fragment1	0.0000
1104	H527     3.4800    18.5670    38.0020	H	1	fragment1	0.0000
1105	H528     4.2230    19.9890    37.1410	H	1	fragment1	0.0000
1106	H529     5.7970    19.2780    39.4160	H	1	fragment1	0.0000
1107	H530     2.6780    20.8410    38.6660	H	1	fragment1	0.0000
1108	H531     2.6920    21.7840    40.1190	H	1	fragment1	0.0000
1109	H532     5.7520    20.5630    41.3010	H	1	fragment1	0.0000
1110	H533     4.4190    21.6280    41.6000	H	1	fragment1	0.0000
1111	C354     2.2190    14.2300    33.2790	C.2	1	fragment1	0.0000
1112	C355     3.7010    13.9160    33.0690	C.3	1	fragment1	0.0000
1113	N113     4.6000    14.8830    33.6860	N.3	1	fragment1	0.0000
1114	O109     1.4220    13.3500    33.5440	O.2	1	fragment1	0.0000
1115	C356     4.0120    12.4060    33.2510	C.3	1	fragment1	0.0000
1116	C357     3.4000    11.5080    32.1530	C.2	1	fragment1	0.0000
1117	O110     2.8670    11.9630    31.1360	O.2	1	fragment1	0.0000
1118	N114     3.3890    10.2080    32.3900	N.3	1	fragment1	0.0000
1119	H534     5.2250    15.3730    33.0830	H	1	fragment1	0.0000
1120	H535     3.7020    14.1400    32.0140	H	1	fragment1	0.0000
1121	H536     3.6110    12.0760    34.2330	H	1	fragment1	0.0000
1122	H537     5.1140    12.2660    33.2400	H	1	fragment1	0.0000
1123	H538     3.0050     9.5800    31.7140	H	1	fragment1	0.0000
1124	H539     3.7650     9.8530    33.2460	H	1	fragment1	0.0000
1125	C358    -0.5820    15.1780    32.3590	C.2	1	fragment1	0.0000
1126	C359     0.4550    15.9020    33.1810	C.3	1	fragment1	0.0000
1127	N115     1.8390    15.4830    33.0410	N.3	1	fragment1	0.0000
1128	O111    -1.7360    15.0850    32.7900	O.2	1	fragment1	0.0000
1129	C360     0.2860    17.4230    33.1200	C.3	1	fragment1	0.0000
1130	C361     0.9510    18.0180    34.3490	C.3	1	fragment1	0.0000
1131	C362     0.7380    19.5330    34.4200	C.3	1	fragment1	0.0000
1132	C363     0.4970    17.2690    35.6240	C.3	1	fragment1	0.0000
1133	H540     2.4840    16.1880    32.7570	H	1	fragment1	0.0000
1134	H541     0.0990    15.5320    34.1310	H	1	fragment1	0.0000
1135	H542    -0.7940    17.6850    33.1070	H	1	fragment1	0.0000
1136	H543     0.7630    17.8220    32.1990	H	1	fragment1	0.0000
1137	H544     2.0410    17.8050    34.3130	H	1	fragment1	0.0000
1138	H545    -0.3480    19.7640    34.4670	H	1	fragment1	0.0000
1139	H546     1.1650    20.0180    33.5160	H	1	fragment1	0.0000
1140	H547     1.2270    19.9410    35.3300	H	1	fragment1	0.0000
1141	H548     1.0640    16.3200    35.7310	H	1	fragment1	0.0000
1142	H549    -0.5860    17.0300    35.5570	H	1	fragment1	0.0000
1143	H550     0.6860    17.8980    36.5200	H	1	fragment1	0.0000
1144	C364    -1.2430    12.4990    30.5310	C.2	1	fragment1	0.0000
1145	C365    -1.2040    13.9910    30.3140	C.3	1	fragment1	0.0000
1146	N116    -0.2170    14.6850    31.1660	N.3	1	fragment1	0.0000
1147	O112    -2.0080    11.7600    29.8570	O.2	1	fragment1	0.0000
1148	C366    -0.9940    14.2860    28.8200	C.3	1	fragment1	0.0000
1149	S5    -1.2640    16.0470    28.5130	S.3	1	fragment1	0.0000
1150	H551     0.7110    14.7620    30.8100	H	1	fragment1	0.0000
1151	H552    -2.1870    14.3190    30.6190	H	1	fragment1	0.0000
1152	H553    -1.7060    13.6800    28.2200	H	1	fragment1	0.0000
1153	H554     0.0400    14.0020    28.5290	H	1	fragment1	0.0000
1154	C367     0.0130     9.7280    30.6310	C.2	1	fragment1	0.0000
1155	C368    -0.2230    10.6670    31.8100	C.3	1	fragment1	0.0000
1156	N117    -0.3270    12.0760    31.4180	N.3	1	fragment1	0.0000
1157	O113    -0.6980     8.7500    30.4340	O.2	1	fragment1	0.0000
1158	C369    -1.5170    10.2520    32.5970	C.3	1	fragment1	0.0000
1159	C370    -1.4530     8.8520    33.2070	C.2	1	fragment1	0.0000
1160	O114    -2.4790     8.1390    33.3390	O.2	1	fragment1	0.0000
1161	N118    -0.2290     8.4470    33.5740	N.3	1	fragment1	0.0000
1162	H555     0.3210    12.7000    31.8480	H	1	fragment1	0.0000
1163	H556     0.6540    10.5490    32.4290	H	1	fragment1	0.0000
1164	H557    -2.3820    10.2870    31.9010	H	1	fragment1	0.0000
1165	H558    -1.6810    10.9800    33.4190	H	1	fragment1	0.0000
1166	H559    -0.1030     7.5430    33.9810	H	1	fragment1	0.0000
1167	H560     0.5580     9.0490    33.4400	H	1	fragment1	0.0000
1168	C371     2.8380     9.3400    28.3740	C.2	1	fragment1	0.0000
1169	C372     1.3340     9.2350    28.6810	C.3	1	fragment1	0.0000
1170	N119     1.0140    10.0070    29.8280	N.3	1	fragment1	0.0000
1171	O115     3.5360    10.3250    28.7060	O.2	1	fragment1	0.0000
1172	C373     0.7330     9.8980    27.4740	C.3	1	fragment1	0.0000
1173	C374     0.7730    11.4140    27.5420	C.3	1	fragment1	0.0000
1174	C375    -0.4750     9.2510    26.8160	C.3	1	fragment1	0.0000
1175	H561     1.6070    10.7910    29.9920	H	1	fragment1	0.0000
1176	H562     0.9330     8.2410    28.8120	H	1	fragment1	0.0000
1177	H563     1.5300     9.9650    26.7050	H	1	fragment1	0.0000
1178	H564     0.7740    13.0720    26.1520	H	1	fragment1	0.0000
1179	H565    -0.1080    11.7900    28.1050	H	1	fragment1	0.0000
1180	H566    -1.3970     9.5000    27.3830	H	1	fragment1	0.0000
1181	H567    -0.3530     8.1470    26.8040	H	1	fragment1	0.0000
1182	H568    -0.5860     9.6270    25.7760	H	1	fragment1	0.0000
1183	C376     4.6910     9.2640    26.0390	C.2	1	fragment1	0.0000
1184	C377     4.6920     8.3300    27.2460	C.3	1	fragment1	0.0000
1185	N120     3.3120     8.3230    27.6950	N.3	1	fragment1	0.0000
1186	O116     3.7440     9.2300    25.1880	O.2	1	fragment1	0.0000
1187	C378     4.9620     6.9100    26.7170	C.3	1	fragment1	0.0000
1188	C379     3.5980     6.2030    26.6200	C.3	1	fragment1	0.0000
1189	C380     2.5880     7.0530    27.3850	C.3	1	fragment1	0.0000
1190	H569     5.3370     8.6280    28.0560	H	1	fragment1	0.0000
1191	H570     5.6320     6.3610    27.4130	H	1	fragment1	0.0000
1192	H571     5.4440     6.9570    25.7170	H	1	fragment1	0.0000
1193	H572     3.2910     6.1080    25.5570	H	1	fragment1	0.0000
1194	H573     3.6600     5.1880    27.0670	H	1	fragment1	0.0000
1195	H574     1.6950     7.2730    26.7630	H	1	fragment1	0.0000
1196	H575     2.2790     6.5580    28.3300	H	1	fragment1	0.0000
1197	C381     5.7450    10.3560    23.4440	C.2	1	fragment1	0.0000
1198	C382     5.8560    11.0240    24.8140	C.3	1	fragment1	0.0000
1199	N121     5.7570    10.0700    25.9240	N.3	1	fragment1	0.0000
1200	O117     5.2590    10.9270    22.4400	O.2	1	fragment1	0.0000
1201	C383     7.1830    11.8490    24.9110	C.3	1	fragment1	0.0000
1202	S6     7.2810    12.8090    26.4240	S.3	1	fragment1	0.0000
1203	H576     6.5140    10.0580    26.5730	H	1	fragment1	0.0000
1204	H577     5.0010    11.6820    24.8610	H	1	fragment1	0.0000
1205	H578     7.2410    12.5320    24.0380	H	1	fragment1	0.0000
1206	H579     8.0420    11.1470    24.8650	H	1	fragment1	0.0000
1207	C384     4.7100     8.2620    21.6000	C.2	1	fragment1	0.0000
1208	C385     6.1240     8.4160    22.0600	C.3	1	fragment1	0.0000
1209	N122     6.1890     9.0850    23.3620	N.3	1	fragment1	0.0000
1210	O118     4.4580     8.1840    20.3990	O.2	1	fragment1	0.0000
1211	C386     6.8390     7.0750    22.0030	C.3	1	fragment1	0.0000
1212	O119     6.2700     6.2770    23.0060	O.3	1	fragment1	0.0000
1213	H580     6.5590     8.5730    24.1330	H	1	fragment1	0.0000
1214	H581     6.5640     9.0870    21.3380	H	1	fragment1	0.0000
1215	H582     7.9260     7.2020    22.1950	H	1	fragment1	0.0000
1216	H583     6.6920     6.5950    21.0120	H	1	fragment1	0.0000
1217	H584     6.6090     5.3900    22.8630	H	1	fragment1	0.0000
1218	C387     2.0230     9.3890    21.2520	C.2	1	fragment1	0.0000
1219	C388     2.3920     8.1670    22.1020	C.3	1	fragment1	0.0000
1220	N123     3.7800     8.2290    22.5380	N.3	1	fragment1	0.0000
1221	O120     1.0560     9.3300    20.5010	O.2	1	fragment1	0.0000
1222	C389     1.4230     8.1320    23.3000	C.3	1	fragment1	0.0000
1223	H585     3.9680     8.2440    23.5170	H	1	fragment1	0.0000
1224	H586     2.2740     7.2760    21.5030	H	1	fragment1	0.0000
1225	H587     1.5490     9.0450    23.9200	H	1	fragment1	0.0000
1226	H588     1.6340     7.2430    23.9310	H	1	fragment1	0.0000
1227	H589     0.3740     8.0920    22.9370	H	1	fragment1	0.0000
1228	C390     3.0590    11.7580    19.2520	C.2	1	fragment1	0.0000
1229	C391     2.4810    11.7460    20.6960	C.3	1	fragment1	0.0000
1230	N124     2.7270    10.5180    21.4560	N.3	1	fragment1	0.0000
1231	O121     2.9650    12.7470    18.5320	O.2	1	fragment1	0.0000
1232	C392     3.0370    12.9310    21.4650	C.3	1	fragment1	0.0000
1233	C393     2.4180    13.0010    22.8400	C.3	1	fragment1	0.0000
1234	C394     3.0470    14.1490    23.6560	C.3	1	fragment1	0.0000
1235	C395     0.9070    13.1900    22.6780	C.3	1	fragment1	0.0000
1236	H590     3.4520    10.5680    22.1380	H	1	fragment1	0.0000
1237	H591     1.4160    11.8510    20.5530	H	1	fragment1	0.0000
1238	H592     2.8140    13.8680    20.9110	H	1	fragment1	0.0000
1239	H593     4.1390    12.8250    21.5610	H	1	fragment1	0.0000
1240	H594     2.5850    12.0380    23.3690	H	1	fragment1	0.0000
1241	H595     3.0410    15.0880    23.0620	H	1	fragment1	0.0000
1242	H596     4.0990    13.8990    23.9130	H	1	fragment1	0.0000
1243	H597     2.4640    14.3150    24.5870	H	1	fragment1	0.0000
1244	H598     0.4470    12.2610    22.2780	H	1	fragment1	0.0000
1245	H599     0.7040    14.0210    21.9690	H	1	fragment1	0.0000
1246	H600     0.4470    13.4180    23.6630	H	1	fragment1	0.0000
1247	C396     3.4370     9.7470    16.5500	C.2	1	fragment1	0.0000
1248	C397     4.2360    10.6000    17.4860	C.3	1	fragment1	0.0000
1249	N125     3.6630    10.6470    18.8150	N.3	1	fragment1	0.0000
1250	O122     3.7650     9.6820    15.3910	O.2	1	fragment1	0.0000
1251	C398     5.7040    10.0760    17.4930	C.3	1	fragment1	0.0000
1252	C399     6.6530    10.8920    18.3910	C.3	1	fragment1	0.0000
1253	C400     8.0880    10.5210    18.0520	C.3	1	fragment1	0.0000
1254	C401     6.5120    12.3860    18.1190	C.3	1	fragment1	0.0000
1255	H601     3.7440     9.8220    19.3690	H	1	fragment1	0.0000
1256	H602     4.2050    11.6010    17.0810	H	1	fragment1	0.0000
1257	H603     6.0930    10.1040    16.4530	H	1	fragment1	0.0000
1258	H604     5.7010     9.0240    17.8480	H	1	fragment1	0.0000
1259	H605     6.4480    10.6650    19.4590	H	1	fragment1	0.0000
1260	H606     8.2990    10.7490    16.9850	H	1	fragment1	0.0000
1261	H607     8.2480     9.4350    18.2210	H	1	fragment1	0.0000
1262	H608     8.7890    11.1050    18.6850	H	1	fragment1	0.0000
1263	H609     5.5300    12.7500    18.4890	H	1	fragment1	0.0000
1264	H610     6.5730    12.5790    17.0270	H	1	fragment1	0.0000
1265	H611     7.3170    12.9430    18.6430	H	1	fragment1	0.0000
1266	C402     0.7420     8.8510    15.2300	C.2	1	fragment1	0.0000
1267	C403     1.5120     8.1910    16.3390	C.3	1	fragment1	0.0000
1268	N126     2.4160     9.0760    17.0730	N.3	1	fragment1	0.0000
1269	O123     0.4260    10.0320    15.2620	O.2	1	fragment1	0.0000
1270	C404     0.4490     7.6540    17.3050	C.3	1	fragment1	0.0000
1271	O124    -0.4950     6.8820    16.5850	O.3	1	fragment1	0.0000
1272	H612     2.2120     9.1530    18.0450	H	1	fragment1	0.0000
1273	H613     2.0910     7.3820    15.9190	H	1	fragment1	0.0000
1274	H614    -0.0760     8.4990    17.7990	H	1	fragment1	0.0000
1275	H615     0.9270     7.0140    18.0770	H	1	fragment1	0.0000
1276	H616    -1.2140     6.7060    17.1960	H	1	fragment1	0.0000
1277	C405    -1.9290     8.7830    13.6810	C.2	1	fragment1	0.0000
1278	C406    -0.4940     8.4830    13.1560	C.3	1	fragment1	0.0000
1279	N127     0.3390     8.0480    14.2810	N.3	1	fragment1	0.0000
1280	O125    -2.7150     9.5390    13.1260	O.2	1	fragment1	0.0000
1281	C407    -0.5120     7.3540    12.0980	C.3	1	fragment1	0.0000
1282	O126     0.7210     7.3350    11.4030	O.3	1	fragment1	0.0000
1283	H617     0.5860     7.0820    14.2800	H	1	fragment1	0.0000
1284	H618    -0.0730     9.3890    12.7450	H	1	fragment1	0.0000
1285	H619    -1.3340     7.5300    11.3710	H	1	fragment1	0.0000
1286	H620    -0.6620     6.3720    12.5950	H	1	fragment1	0.0000
1287	H621     0.7890     6.4630    11.0080	H	1	fragment1	0.0000
1288	C408    -3.4460     9.5860    16.2610	C.2	1	fragment1	0.0000
1289	C409    -3.6200     8.3950    15.3390	C.3	1	fragment1	0.0000
1290	N128    -2.3020     8.1510    14.7680	N.3	1	fragment1	0.0000
1291	O127    -2.7600     9.5300    17.2780	O.2	1	fragment1	0.0000
1292	C410    -4.0340     7.1560    16.1340	C.3	1	fragment1	0.0000
1293	C411    -5.3360     7.3460    16.8630	C.2	1	fragment1	0.0000
1294	O128    -5.8690     8.4150    16.9850	O.2	1	fragment1	0.0000
1295	O129    -5.8350     6.2420    17.3220	O.3	1	fragment1	0.0000
1296	H622    -1.7190     7.4940    15.2400	H	1	fragment1	0.0000
1297	H623    -4.3150     8.5870    14.5350	H	1	fragment1	0.0000
1298	H624    -3.2430     6.9230    16.8790	H	1	fragment1	0.0000
1299	H625    -4.1420     6.2980    15.4360	H	1	fragment1	0.0000
1300	C412    -4.5790    11.9510    18.0770	C.2	1	fragment1	0.0000
1301	C413    -3.8070    11.8670    16.7670	C.3	1	fragment1	0.0000
1302	N129    -4.0330    10.6990    15.9250	N.3	1	fragment1	0.0000
1303	O130    -4.5310    12.9630    18.7800	O.2	1	fragment1	0.0000
1304	C414    -4.0020    13.1270    15.9440	C.3	1	fragment1	0.0000
1305	C415    -5.4650    13.2340    15.4640	C.3	1	fragment1	0.0000
1306	C416    -3.0040    13.1240    14.7830	C.3	1	fragment1	0.0000
1307	H626    -4.6250    10.8010    15.1300	H	1	fragment1	0.0000
1308	H627    -2.8000    11.8180    17.1540	H	1	fragment1	0.0000
1309	H628    -3.8340    14.0210    16.5810	H	1	fragment1	0.0000
1310	H629    -7.1050    14.6660    15.5460	H	1	fragment1	0.0000
1311	H630    -5.5360    12.7660    14.4600	H	1	fragment1	0.0000
1312	H631    -3.1700    12.2340    14.1390	H	1	fragment1	0.0000
1313	H632    -1.9660    13.0890    15.1770	H	1	fragment1	0.0000
1314	H633    -3.1390    14.0380    14.1660	H	1	fragment1	0.0000
1315	C417    -5.3220    11.3820    20.9420	C.2	1	fragment1	0.0000
1316	C418    -6.0620    10.9430    19.6640	C.3	1	fragment1	0.0000
1317	N130    -5.2970    10.9090    18.4360	N.3	1	fragment1	0.0000
1318	O131    -5.7690    12.2660    21.6470	O.2	1	fragment1	0.0000
1319	C419    -6.7580     9.5930    19.8970	C.3	1	fragment1	0.0000
1320	C420    -7.7500     9.6910    21.0440	C.3	1	fragment1	0.0000
1321	O132    -7.4490     9.3020    18.7280	O.3	1	fragment1	0.0000
1322	H634    -5.3470    10.0730    17.8960	H	1	fragment1	0.0000
1323	H635    -6.7930    11.7340    19.5830	H	1	fragment1	0.0000
1324	H636    -6.0110     8.7960    20.1010	H	1	fragment1	0.0000
1325	H637    -6.7980     8.9510    18.1160	H	1	fragment1	0.0000
1326	H638    -8.4150    10.5690    20.9000	H	1	fragment1	0.0000
1327	H639    -7.2060     9.8120    22.0050	H	1	fragment1	0.0000
1328	H640    -8.3760     8.7740    21.0810	H	1	fragment1	0.0000
1329	C421    -3.1260    12.6200    22.5120	C.2	1	fragment1	0.0000
1330	C422    -3.6140    11.1780    22.5690	C.3	1	fragment1	0.0000
1331	N131    -4.2100    10.7620    21.3140	N.3	1	fragment1	0.0000
1332	O133    -3.1690    13.3240    23.4840	O.2	1	fragment1	0.0000
1333	C423    -2.4980    10.2110    22.9560	C.3	1	fragment1	0.0000
1334	H641    -3.7650    10.0390    20.7920	H	1	fragment1	0.0000
1335	H642    -4.3860    11.1870    23.3240	H	1	fragment1	0.0000
1336	H643    -1.7140    10.1990    22.1690	H	1	fragment1	0.0000
1337	H644    -2.9080     9.1840    23.0640	H	1	fragment1	0.0000
1338	H645    -2.0350    10.5320    23.9140	H	1	fragment1	0.0000
1339	C424    -3.2480    15.4090    21.4370	C.2	1	fragment1	0.0000
1340	C425    -2.1160    14.3990    21.2290	C.3	1	fragment1	0.0000
1341	N132    -2.6180    13.0490    21.3620	N.3	1	fragment1	0.0000
1342	O134    -3.0770    16.4310    22.0830	O.2	1	fragment1	0.0000
1343	C426    -1.5520    14.5940    19.8510	C.3	1	fragment1	0.0000
1344	H646    -2.5600    12.4700    20.5520	H	1	fragment1	0.0000
1345	H647    -1.3520    14.5520    21.9770	H	1	fragment1	0.0000
1346	H648    -2.3410    14.4230    19.0880	H	1	fragment1	0.0000
1347	H649    -0.7260    13.8720    19.6750	H	1	fragment1	0.0000
1348	H650    -1.1710    15.6320    19.7420	H	1	fragment1	0.0000
1349	C427    -6.0080    16.0540    22.4370	C.2	1	fragment1	0.0000
1350	C428    -5.5360    16.0020    20.9790	C.3	1	fragment1	0.0000
1351	N133    -4.3920    15.1210    20.8540	N.3	1	fragment1	0.0000
1352	O135    -6.3160    17.1100    23.0430	O.2	1	fragment1	0.0000
1353	C429    -6.6040    15.5530    19.9470	C.3	1	fragment1	0.0000
1354	C430    -8.0010    16.1220    20.2530	C.3	1	fragment1	0.0000
1355	C431    -6.1910    15.9410    18.5210	C.3	1	fragment1	0.0000
1356	H651    -4.5230    14.2970    20.3080	H	1	fragment1	0.0000
1357	H652    -5.2160    17.0150    20.7870	H	1	fragment1	0.0000
1358	H653    -6.6610    14.4440    19.9500	H	1	fragment1	0.0000
1359	H654    -7.9100    17.1050    20.7630	H	1	fragment1	0.0000
1360	H655    -8.5550    15.4270    20.9190	H	1	fragment1	0.0000
1361	H656    -8.5670    16.2640    19.3080	H	1	fragment1	0.0000
1362	H657    -5.2260    15.4570    18.2580	H	1	fragment1	0.0000
1363	H658    -6.0670    17.0430    18.4500	H	1	fragment1	0.0000
1364	H659    -6.9650    15.6040    17.7980	H	1	fragment1	0.0000
1365	C432    -5.6510    15.6410    25.3090	C.2	1	fragment1	0.0000
1366	C433    -6.5660    14.8340    24.4190	C.3	1	fragment1	0.0000
1367	N134    -6.0980    14.8690    23.0390	N.3	1	fragment1	0.0000
1368	O136    -6.0840    16.3440    26.2000	O.2	1	fragment1	0.0000
1369	C434    -6.7230    13.4070    24.9840	C.3	1	fragment1	0.0000
1370	C435    -7.9120    12.6890    24.3680	C.2	1	fragment1	0.0000
1371	O137    -8.0490    11.4500    24.4680	O.2	1	fragment1	0.0000
1372	N135    -8.7390    13.4690    23.6770	N.3	1	fragment1	0.0000
1373	H660    -5.8640    14.0040    22.6030	H	1	fragment1	0.0000
1374	H661    -7.5190    15.3410    24.4470	H	1	fragment1	0.0000
1375	H662    -6.8690    13.4630    26.0840	H	1	fragment1	0.0000
1376	H663    -5.8020    12.8240    24.7680	H	1	fragment1	0.0000
1377	H664    -9.5470    13.0760    23.2390	H	1	fragment1	0.0000
1378	H665    -8.5520    14.4480    23.5960	H	1	fragment1	0.0000
1379	C436    -3.3850    17.6980    25.4840	C.2	1	fragment1	0.0000
1380	C437    -3.3230    16.1840    25.7650	C.3	1	fragment1	0.0000
1381	N136    -4.3600    15.4860    25.0360	N.3	1	fragment1	0.0000
1382	O138    -3.3220    18.5080    26.3940	O.2	1	fragment1	0.0000
1383	C438    -1.9260    15.5530    25.4930	C.3	1	fragment1	0.0000
1384	S7    -0.6850    16.2980    26.5520	S.3	1	fragment1	0.0000
1385	H666    -4.0460    14.8780    24.3120	H	1	fragment1	0.0000
1386	H667    -3.5600    16.1270    26.8170	H	1	fragment1	0.0000
1387	H668    -1.6560    15.7110    24.4270	H	1	fragment1	0.0000
1388	H669    -1.9770    14.4600    25.6830	H	1	fragment1	0.0000
1389	C439    -4.8690    20.1840    24.6080	C.2	1	fragment1	0.0000
1390	C440    -3.6750    19.4930    23.8820	C.3	1	fragment1	0.0000
1391	N137    -3.5760    18.0830    24.2240	N.3	1	fragment1	0.0000
1392	O139    -4.8510    21.3760    25.0040	O.2	1	fragment1	0.0000
1393	C441    -3.8510    19.5690    22.3730	C.3	1	fragment1	0.0000
1394	H670    -3.6580    17.4350    23.4710	H	1	fragment1	0.0000
1395	H671    -2.7720    19.9960    24.1960	H	1	fragment1	0.0000
1396	H672    -4.7730    19.0290    22.0690	H	1	fragment1	0.0000
1397	H673    -2.9810    19.0980    21.8670	H	1	fragment1	0.0000
1398	H674    -3.9400    20.6300    22.0560	H	1	fragment1	0.0000
1399	C442    -6.7690    20.3160    26.9070	C.2	1	fragment1	0.0000
1400	C443    -7.0960    19.9710    25.4580	C.3	1	fragment1	0.0000
1401	N138    -5.9380    19.4300    24.7780	N.3	1	fragment1	0.0000
1402	O140    -7.1850    21.3050    27.4120	O.2	1	fragment1	0.0000
1403	C444    -8.1930    18.9390    25.4310	C.3	1	fragment1	0.0000
1404	C445    -8.7430    18.7100    24.0460	C.3	1	fragment1	0.0000
1405	C446    -9.9240    17.7410    24.0710	C.3	1	fragment1	0.0000
1406	C447   -10.9280    17.9540    22.9390	C.3	1	fragment1	0.0000
1407	N139   -11.5710    16.7100    22.4800	N.3	1	fragment1	0.0000
1408	H675    -5.9970    18.4870    24.4580	H	1	fragment1	0.0000
1409	H676    -7.4040    20.8720    24.9490	H	1	fragment1	0.0000
1410	H677    -9.0190    19.2770    26.0920	H	1	fragment1	0.0000
1411	H678    -7.7910    17.9790    25.8200	H	1	fragment1	0.0000
1412	H679    -7.9420    18.2920    23.4000	H	1	fragment1	0.0000
1413	H680    -9.0770    19.6810    23.6210	H	1	fragment1	0.0000
1414	H681   -10.4550    17.8600    25.0390	H	1	fragment1	0.0000
1415	H682    -9.5300    16.7050    24.0010	H	1	fragment1	0.0000
1416	H683   -10.4060    18.3980    22.0640	H	1	fragment1	0.0000
1417	H684   -11.7350    18.6330    23.2870	H	1	fragment1	0.0000
1418	H685   -12.5170    16.6300    22.9060	H	1	fragment1	0.0000
1419	H686   -10.9920    15.8950    22.7660	H	1	fragment1	0.0000
1420	H687   -11.6580    16.7260    21.4440	H	1	fragment1	0.0000
1421	C448    -4.6710    21.0220    28.9410	C.2	1	fragment1	0.0000
1422	C449    -5.5880    19.8000    28.9490	C.3	1	fragment1	0.0000
1423	N140    -5.9920    19.5020    27.5820	N.3	1	fragment1	0.0000
1424	O141    -4.6490    21.8620    29.8300	O.2	1	fragment1	0.0000
1425	C450    -4.7160    18.6710    29.5220	C.3	1	fragment1	0.0000
1426	C451    -5.4350    17.3820    29.8950	C.3	1	fragment1	0.0000
1427	C452    -5.9750    17.3760    31.3200	C.3	1	fragment1	0.0000
1428	C453    -7.2510    16.5450    31.4830	C.3	1	fragment1	0.0000
1429	N141    -8.5090    17.3340    31.3960	N.3	1	fragment1	0.0000
1430	H688    -5.6460    18.6510    27.1940	H	1	fragment1	0.0000
1431	H689    -6.4820    19.9190    29.5420	H	1	fragment1	0.0000
1432	H690    -4.2170    19.0580    30.4350	H	1	fragment1	0.0000
1433	H691    -3.9430    18.4220    28.7660	H	1	fragment1	0.0000
1434	H692    -4.7250    16.5360    29.7820	H	1	fragment1	0.0000
1435	H693    -6.2840    17.2350    29.1940	H	1	fragment1	0.0000
1436	H694    -6.1930    18.4230    31.6210	H	1	fragment1	0.0000
1437	H695    -5.1940    16.9630    31.9930	H	1	fragment1	0.0000
1438	H696    -7.2410    16.0550    32.4800	H	1	fragment1	0.0000
1439	H697    -7.2910    15.7780    30.6810	H	1	fragment1	0.0000
1440	H698    -8.5640    17.7980    30.4670	H	1	fragment1	0.0000
1441	H699    -8.5180    18.0560    32.1450	H	1	fragment1	0.0000
1442	H700    -9.3250    16.7000    31.5160	H	1	fragment1	0.0000
1443	C454    -3.5960    23.5370    27.6960	C.2	1	fragment1	0.0000
1444	C455    -2.8940    22.1900    27.9130	C.3	1	fragment1	0.0000
1445	N142    -3.8340    21.0940    27.9360	N.3	1	fragment1	0.0000
1446	O142    -3.3210    24.5310    28.3600	O.2	1	fragment1	0.0000
1447	C456    -1.8290    21.9740    26.8260	C.3	1	fragment1	0.0000
1448	C457    -0.9980    20.7270    27.0750	C.3	1	fragment1	0.0000
1449	C458    -0.9400    23.2000    26.7140	C.3	1	fragment1	0.0000
1450	H701    -3.8060    20.4380    27.1860	H	1	fragment1	0.0000
1451	H702    -2.4290    22.2510    28.8860	H	1	fragment1	0.0000
1452	H703    -2.3280    21.7880    25.8510	H	1	fragment1	0.0000
1453	H704     0.3630    19.4520    25.9680	H	1	fragment1	0.0000
1454	H705    -0.3620    20.8770    27.9740	H	1	fragment1	0.0000
1455	H706    -0.4300    23.3920    27.6820	H	1	fragment1	0.0000
1456	H707    -1.5530    24.0890    26.4540	H	1	fragment1	0.0000
1457	H708    -0.1680    23.0370    25.9320	H	1	fragment1	0.0000
1458	C459    -6.0530    25.2860    27.5120	C.2	1	fragment1	0.0000
1459	C460    -5.1300    24.8450    26.4150	C.3	1	fragment1	0.0000
1460	N143    -4.4700    23.5880    26.7140	N.3	1	fragment1	0.0000
1461	O143    -6.3990    26.4500    27.5840	O.2	1	fragment1	0.0000
1462	C461    -5.7780    24.8410    25.0250	C.3	1	fragment1	0.0000
1463	C462    -7.0320    23.9960    25.0490	C.3	1	fragment1	0.0000
1464	C463    -6.0440    26.2510    24.4530	C.3	1	fragment1	0.0000
1465	H709    -4.7100    22.8000    26.1530	H	1	fragment1	0.0000
1466	H710    -4.3870    25.6270    26.4730	H	1	fragment1	0.0000
1467	H711    -5.0640    24.4250    24.2830	H	1	fragment1	0.0000
1468	H712    -7.8220    24.5020    25.6440	H	1	fragment1	0.0000
1469	H713    -6.8150    23.0100    25.5130	H	1	fragment1	0.0000
1470	H714    -7.4080    23.8480    24.0140	H	1	fragment1	0.0000
1471	H715    -5.0830    26.7450    24.1930	H	1	fragment1	0.0000
1472	H716    -6.5690    26.8730    25.2090	H	1	fragment1	0.0000
1473	H717    -6.6650    26.1760    23.5350	H	1	fragment1	0.0000
1474	C464    -6.5550    25.1290    30.7150	C.2	1	fragment1	0.0000
1475	C465    -7.3060    24.6080    29.4860	C.3	1	fragment1	0.0000
1476	N144    -6.4370    24.3400    28.3640	N.3	1	fragment1	0.0000
1477	O144    -7.1470    25.5020    31.7050	O.2	1	fragment1	0.0000
1478	C466    -8.0040    23.3270    29.8780	C.3	1	fragment1	0.0000
1479	O145    -8.9950    23.0440    28.9150	O.3	1	fragment1	0.0000
1480	H718    -6.1390    23.3940    28.2650	H	1	fragment1	0.0000
1481	H719    -8.0230    25.3600    29.1930	H	1	fragment1	0.0000
1482	H720    -8.4830    23.4410    30.8740	H	1	fragment1	0.0000
1483	H721    -7.2760    22.4890    29.9120	H	1	fragment1	0.0000
1484	H722    -8.5360    22.6460    28.1720	H	1	fragment1	0.0000
1485	C467    -4.2420    26.9790    32.1130	C.2	1	fragment1	0.0000
1486	C468    -4.3230    25.5060    31.7030	C.3	1	fragment1	0.0000
1487	N145    -5.2400    25.1550    30.6260	N.3	1	fragment1	0.0000
1488	O146    -3.5640    27.3510    33.0980	O.2	1	fragment1	0.0000
1489	C469    -2.9230    24.8410    31.4640	C.3	1	fragment1	0.0000
1490	C470    -2.0680    24.5480    32.7060	C.2	1	fragment1	0.0000
1491	O147    -2.4800    23.8600    33.6760	O.2	1	fragment1	0.0000
1492	N146    -0.8270    25.0280    32.6510	N.3	1	fragment1	0.0000
1493	H723    -4.7920    24.9220    29.7680	H	1	fragment1	0.0000
1494	H724    -4.7500    25.1610    32.6330	H	1	fragment1	0.0000
1495	H725    -2.3340    25.5160    30.8080	H	1	fragment1	0.0000
1496	H726    -3.0900    23.8760    30.9420	H	1	fragment1	0.0000
1497	H727    -0.2010    24.8830    33.4170	H	1	fragment1	0.0000
1498	H728    -0.5220    25.5330    31.8440	H	1	fragment1	0.0000
1499	C471    -4.2710    30.2120    30.9140	C.2	1	fragment1	0.0000
1500	C472    -4.8300    29.2160    31.9020	C.3	1	fragment1	0.0000
1501	N147    -4.9160    27.8490    31.4180	N.3	1	fragment1	0.0000
1502	O148    -4.7340    31.3560    30.9010	O.2	1	fragment1	0.0000
1503	H729    -5.4630    27.6470    30.6110	H	1	fragment1	0.0000
1504	H730    -4.1950    29.2080    32.7750	H	1	fragment1	0.0000
1505	H731    -5.8290    29.5250    32.1700	H	1	fragment1	0.0000
1506	C473    -3.2880    30.4410    27.6910	C.2	1	fragment1	0.0000
1507	C474    -2.7210    30.7330    29.1000	C.3	1	fragment1	0.0000
1508	N148    -3.2650    29.8110    30.1080	N.3	1	fragment1	0.0000
1509	O149    -2.8570    31.0100    26.6900	O.2	1	fragment1	0.0000
1510	C475    -1.2000    30.7600    29.0690	C.3	1	fragment1	0.0000
1511	C476    -0.6660    31.2820    30.3440	C.2	1	fragment1	0.0000
1512	O150     0.5550    31.3100    30.5460	O.2	1	fragment1	0.0000
1513	N149    -1.6000    31.6750    31.2040	N.3	1	fragment1	0.0000
1514	H732    -2.8580    28.9020    30.1570	H	1	fragment1	0.0000
1515	H733    -3.0970    31.7190    29.3290	H	1	fragment1	0.0000
1516	H734    -0.8570    31.4120    28.2380	H	1	fragment1	0.0000
1517	H735    -0.8140    29.7310    28.9080	H	1	fragment1	0.0000
1518	H736    -1.3360    32.0430    32.0950	H	1	fragment1	0.0000
1519	H737    -2.5670    31.6020    30.9600	H	1	fragment1	0.0000
1520	C477    -3.8240    28.6940    25.3420	C.2	1	fragment1	0.0000
1521	C478    -4.8730    29.1430    26.3520	C.3	1	fragment1	0.0000
1522	N150    -4.2420    29.5230    27.6180	N.3	1	fragment1	0.0000
1523	O151    -2.8510    27.9830    25.6930	O.2	1	fragment1	0.0000
1524	H738    -4.5750    29.0470    28.4280	H	1	fragment1	0.0000
1525	H739    -5.4050    30.0000    25.9650	H	1	fragment1	0.0000
1526	H740    -5.5610    28.3330    26.5430	H	1	fragment1	0.0000
1527	C479    -1.7040    29.4270    23.0530	C.2	1	fragment1	0.0000
1528	C480    -3.0960    28.7650    23.0170	C.3	1	fragment1	0.0000
1529	N151    -3.9900    29.1520    24.0910	N.3	1	fragment1	0.0000
1530	O152    -0.8120    29.0550    22.2900	O.2	1	fragment1	0.0000
1531	C481    -3.7890    28.9460    21.7080	C.3	1	fragment1	0.0000
1532	C482    -4.7270    27.7240    21.4640	C.3	1	fragment1	0.0000
1533	S8    -5.1590    27.4510    19.7020	S.3	1	fragment1	0.0000
1534	C483    -3.5600    26.6930    19.2260	C.3	1	fragment1	0.0000
1535	H741    -4.7300    29.7740    23.8460	H	1	fragment1	0.0000
1536	H742    -2.8180    27.7310    23.1610	H	1	fragment1	0.0000
1537	H743    -3.0390    29.0140    20.8910	H	1	fragment1	0.0000
1538	H744    -4.3870    29.8820    21.7250	H	1	fragment1	0.0000
1539	H745    -5.6590    27.8840    22.0450	H	1	fragment1	0.0000
1540	H746    -4.2210    26.8170    21.8570	H	1	fragment1	0.0000
1541	H747    -3.3610    25.7700    19.8120	H	1	fragment1	0.0000
1542	H748    -2.7280    27.4040    19.4130	H	1	fragment1	0.0000
1543	H749    -3.5700    26.4210    18.1490	H	1	fragment1	0.0000
1544	C484     0.8290    30.1260    24.5240	C.2	1	fragment1	0.0000
1545	C485    -0.2680    31.1300    24.1020	C.3	1	fragment1	0.0000
1546	N152    -1.5320    30.4470    23.9390	N.3	1	fragment1	0.0000
1547	O153     2.0070    30.3720    24.3760	O.2	1	fragment1	0.0000
1548	C486    -0.3670    32.3170    25.0670	C.3	1	fragment1	0.0000
1549	C487    -1.2690    33.3800    24.4820	C.2	1	fragment1	0.0000
1550	O154    -0.9150    34.0110    23.4770	O.2	1	fragment1	0.0000
1551	N153    -2.4510    33.5750    25.0790	N.3	1	fragment1	0.0000
1552	H750    -2.2760    30.7700    24.5180	H	1	fragment1	0.0000
1553	H751     0.0450    31.4740    23.1280	H	1	fragment1	0.0000
1554	H752     0.6430    32.7470    25.2360	H	1	fragment1	0.0000
1555	H753    -0.7850    31.9760    26.0380	H	1	fragment1	0.0000
1556	H754    -2.7040    33.0280    25.8770	H	1	fragment1	0.0000
1557	H755    -3.0810    34.2680    24.7270	H	1	fragment1	0.0000
1558	C488     2.1560    27.4460    24.1720	C.2	1	fragment1	0.0000
1559	C489     1.3240    27.8780    25.3610	C.3	1	fragment1	0.0000
1560	N154     0.4150    28.9520    24.9820	N.3	1	fragment1	0.0000
1561	O155     3.2660    26.9600    24.2980	O.2	1	fragment1	0.0000
1562	C490     0.5770    26.7050    25.9730	C.3	1	fragment1	0.0000
1563	H756    -0.5550    28.7490    25.0890	H	1	fragment1	0.0000
1564	H757     2.0310    28.2790    26.0720	H	1	fragment1	0.0000
1565	H758    -0.1550    26.2960    25.2440	H	1	fragment1	0.0000
1566	H759     0.0270    27.0380    26.8790	H	1	fragment1	0.0000
1567	H760     1.2940    25.9010    26.2450	H	1	fragment1	0.0000
1568	C491     2.9680    28.5130    21.1970	C.2	1	fragment1	0.0000
1569	C492     2.3420    27.2660    21.7750	C.3	1	fragment1	0.0000
1570	N155     1.6080    27.6090    22.9910	N.3	1	fragment1	0.0000
1571	O156     2.3040    29.3770    20.6500	O.2	1	fragment1	0.0000
1572	C493     1.3820    26.6780    20.7280	C.3	1	fragment1	0.0000
1573	C494     1.0170    25.2660    21.0820	C.2	1	fragment1	0.0000
1574	C495     1.8030    24.1750    20.8660	C.2	1	fragment1	0.0000
1575	C496    -0.1330    24.8210    21.7600	C.2	1	fragment1	0.0000
1576	C497    -0.0280    23.4230    21.8680	C.2	1	fragment1	0.0000
1577	C498    -1.2670    25.4390    22.2380	C.2	1	fragment1	0.0000
1578	C499    -1.0250    22.6540    22.4670	C.2	1	fragment1	0.0000
1579	C500    -2.2520    24.6770    22.8210	C.2	1	fragment1	0.0000
1580	C501    -2.1600    23.2850    22.9220	C.2	1	fragment1	0.0000
1581	N156     1.1670    23.0650    21.3110	N.3	1	fragment1	0.0000
1582	H761     0.6850    27.9670    22.8710	H	1	fragment1	0.0000
1583	H762     3.1050    26.5470    22.0330	H	1	fragment1	0.0000
1584	H763     1.8710    26.6870    19.7300	H	1	fragment1	0.0000
1585	H764     0.4570    27.2920    20.6860	H	1	fragment1	0.0000
1586	H765     2.7820    24.1920    20.4100	H	1	fragment1	0.0000
1587	H766     1.5090    22.1530    21.2440	H	1	fragment1	0.0000
1588	H767    -1.3980    26.5080    22.1640	H	1	fragment1	0.0000
1589	H768    -0.9260    21.5850    22.5800	H	1	fragment1	0.0000
1590	H769    -3.1280    25.1710    23.2150	H	1	fragment1	0.0000
1591	H770    -2.9690    22.7130    23.3510	H	1	fragment1	0.0000
1592	C502     4.7690    30.0260    19.3640	C.2	1	fragment1	0.0000
1593	C503     5.0270    29.7400    20.8360	C.3	1	fragment1	0.0000
1594	N157     4.2700    28.5970    21.3230	N.3	1	fragment1	0.0000
1595	O157     4.5750    31.1920    19.0040	O.2	1	fragment1	0.0000
1596	C504     6.5380    29.5380    21.0730	C.3	1	fragment1	0.0000
1597	C505     6.9840    28.2530    20.3780	C.3	1	fragment1	0.0000
1598	C506     7.3300    30.6970    20.4730	C.3	1	fragment1	0.0000
1599	H771     4.8030    27.8780    21.7610	H	1	fragment1	0.0000
1600	H772     4.6800    30.6180    21.3600	H	1	fragment1	0.0000
1601	H773     6.7400    29.4650    22.1630	H	1	fragment1	0.0000
1602	H774     6.9580    28.3860    19.2750	H	1	fragment1	0.0000
1603	H775     6.3020    27.4190    20.6510	H	1	fragment1	0.0000
1604	H776     8.0230    28.0010    20.6800	H	1	fragment1	0.0000
1605	H777     6.9010    31.6660    20.8070	H	1	fragment1	0.0000
1606	H778     7.2840    30.6520    19.3640	H	1	fragment1	0.0000
1607	H779     8.3890    30.6440    20.8060	H	1	fragment1	0.0000
1608	C507     3.1200    29.8380    16.8330	C.2	1	fragment1	0.0000
1609	C508     4.5020    29.2870    17.0720	C.3	1	fragment1	0.0000
1610	N158     4.7330    28.9880    18.4950	N.3	1	fragment1	0.0000
1611	O158     2.9320    30.6010    15.8820	O.2	1	fragment1	0.0000
1612	C509     4.8300    28.1420    16.0980	C.3	1	fragment1	0.0000
1613	H780     4.8530    28.0350    18.7600	H	1	fragment1	0.0000
1614	H781     5.1120    30.1440    16.8300	H	1	fragment1	0.0000
1615	H782     4.2070    27.2520    16.3310	H	1	fragment1	0.0000
1616	H783     5.9010    27.8600    16.1920	H	1	fragment1	0.0000
1617	H784     4.6170    28.4600    15.0550	H	1	fragment1	0.0000
1618	C510     0.7690    31.5000    17.8610	C.2	1	fragment1	0.0000
1619	C511     0.8170    29.9780    17.5560	C.3	1	fragment1	0.0000
1620	N159     2.1660    29.4530    17.6990	N.3	1	fragment1	0.0000
1621	O159     0.2160    32.3740    17.1160	O.2	1	fragment1	0.0000
1622	C512    -0.2060    29.2250    18.4310	C.3	1	fragment1	0.0000
1623	C513    -1.5910    29.8530    18.3270	C.2	1	fragment1	0.0000
1624	C514    -2.4610    29.6640    17.3070	C.2	1	fragment1	0.0000
1625	C515    -2.2110    30.8210    19.2080	C.2	1	fragment1	0.0000
1626	C516    -3.4910    31.1050    18.6710	C.2	1	fragment1	0.0000
1627	C517    -1.8290    31.4780    20.4110	C.2	1	fragment1	0.0000
1628	C518    -4.3390    32.0580    19.2760	C.2	1	fragment1	0.0000
1629	C519    -2.6960    32.3540    21.0340	C.2	1	fragment1	0.0000
1630	C520    -3.9380    32.6610    20.4490	C.2	1	fragment1	0.0000
1631	N160    -3.6220    30.3620    17.5280	N.3	1	fragment1	0.0000
1632	H785     2.3320    28.8160    18.4480	H	1	fragment1	0.0000
1633	H786     0.5430    29.8920    16.5150	H	1	fragment1	0.0000
1634	H787     0.1240    29.2560    19.4910	H	1	fragment1	0.0000
1635	H788    -0.2660    28.1670    18.0990	H	1	fragment1	0.0000
1636	H789    -2.2680    29.0490    16.4400	H	1	fragment1	0.0000
1637	H790    -4.4150    30.3330    16.9600	H	1	fragment1	0.0000
1638	H791    -0.8600    31.3020    20.8530	H	1	fragment1	0.0000
1639	H792    -5.2910    32.3230    18.8410	H	1	fragment1	0.0000
1640	H793    -2.4190    32.8060    21.9750	H	1	fragment1	0.0000
1641	H794    -4.5870    33.3800    20.9260	H	1	fragment1	0.0000
1642	C521     2.1670    34.0900    18.4200	C.2	1	fragment1	0.0000
1643	C522     1.4360    33.2150    19.4320	C.3	1	fragment1	0.0000
1644	N161     1.3800    31.8180    18.9880	N.3	1	fragment1	0.0000
1645	O160     1.7270    35.1530    18.0450	O.2	1	fragment1	0.0000
1646	C523     2.1730    33.3280    20.7640	C.3	1	fragment1	0.0000
1647	C524     2.4430    34.7910    21.0430	C.3	1	fragment1	0.0000
1648	C525     2.9330    35.0070    22.4780	C.3	1	fragment1	0.0000
1649	C526     4.7380    33.4640    23.1820	C.2	1	fragment1	0.0000
1650	N162     3.4330    33.7710    23.0700	N.3	1	fragment1	0.0000
1651	N163     5.7140    34.2770    22.7730	N.3	1	fragment1	0.0000
1652	N164     5.0630    32.2980    23.7330	N.2	1	fragment1	0.0000
1653	H795     1.8200    31.1420    19.5740	H	1	fragment1	0.0000
1654	H796     0.4230    33.5750    19.5320	H	1	fragment1	0.0000
1655	H797     3.1320    32.7700    20.7130	H	1	fragment1	0.0000
1656	H798     1.5510    32.8970    21.5770	H	1	fragment1	0.0000
1657	H799     1.5080    35.3700    20.8870	H	1	fragment1	0.0000
1658	H800     3.2160    35.1600    20.3350	H	1	fragment1	0.0000
1659	H801     2.0950    35.3700    23.1100	H	1	fragment1	0.0000
1660	H802     3.7630    35.7450    22.4840	H	1	fragment1	0.0000
1661	H803     2.7650    33.1120    23.4130	H	1	fragment1	0.0000
1662	H804     6.6640    34.0760    23.0100	H	1	fragment1	0.0000
1663	H805     5.4950    35.0870    22.2290	H	1	fragment1	0.0000
1664	H806     4.3460    31.6780    24.0500	H	1	fragment1	0.0000
1665	H807     6.0250    32.0420    23.8300	H	1	fragment1	0.0000
1666	C527     3.6260    34.3510    15.5330	C.2	1	fragment1	0.0000
1667	C528     4.0590    34.3670    16.9840	C.3	1	fragment1	0.0000
1668	N165     3.2760    33.5990    17.9100	N.3	1	fragment1	0.0000
1669	O161     4.0040    35.2390    14.8090	O.2	1	fragment1	0.0000
1670	C529     5.5820    33.9800    17.0460	C.3	1	fragment1	0.0000
1671	C530     6.1520    34.3180    18.3880	C.2	1	fragment1	0.0000
1672	O162     5.6460    35.2260    19.0550	O.2	1	fragment1	0.0000
1673	N166     7.1490    33.5570    18.8160	N.3	1	fragment1	0.0000
1674	H808     3.6170    32.6900    18.1380	H	1	fragment1	0.0000
1675	H809     3.9320    35.4100    17.2320	H	1	fragment1	0.0000
1676	H810     6.1390    34.5380    16.2640	H	1	fragment1	0.0000
1677	H811     5.6960    32.8900    16.8670	H	1	fragment1	0.0000
1678	H812     7.5690    33.7370    19.7060	H	1	fragment1	0.0000
1679	H813     7.4820    32.8030    18.2490	H	1	fragment1	0.0000
1680	C531     1.1720    33.0050    13.3540	C.2	1	fragment1	0.0000
1681	C532     2.6080    33.2070    13.6640	C.3	1	fragment1	0.0000
1682	N167     2.9070    33.3400    15.0830	N.3	1	fragment1	0.0000
1683	O163     0.8630    33.0250    12.1880	O.2	1	fragment1	0.0000
1684	C533     3.3900    31.9920    13.1410	C.3	1	fragment1	0.0000
1685	C534     4.8400    32.0720    13.6740	C.3	1	fragment1	0.0000
1686	C535     5.8760    31.2410    12.9550	C.3	1	fragment1	0.0000
1687	C536     6.6030    30.4780    10.7870	C.2	1	fragment1	0.0000
1688	N168     5.8740    31.3320    11.4890	N.3	1	fragment1	0.0000
1689	N169     7.3300    29.5780    11.4530	N.3	1	fragment1	0.0000
1690	N170     6.6590    30.5180     9.4720	N.2	1	fragment1	0.0000
1691	H814     2.5420    32.6330    15.6830	H	1	fragment1	0.0000
1692	H815     2.9100    34.1110    13.1570	H	1	fragment1	0.0000
1693	H816     3.3960    31.9970    12.0300	H	1	fragment1	0.0000
1694	H817     2.9100    31.0540    13.4930	H	1	fragment1	0.0000
1695	H818     4.8280    31.7510    14.7360	H	1	fragment1	0.0000
1696	H819     5.1610    33.1330    13.6210	H	1	fragment1	0.0000
1697	H820     5.7110    30.1720    13.2070	H	1	fragment1	0.0000
1698	H821     6.8850    31.5620    13.2910	H	1	fragment1	0.0000
1699	H822     5.3280    32.0310    11.0260	H	1	fragment1	0.0000
1700	H823     7.3130    29.5630    12.4530	H	1	fragment1	0.0000
1701	H824     7.8910    28.9190    10.9520	H	1	fragment1	0.0000
1702	H825     6.1400    31.2100     8.9700	H	1	fragment1	0.0000
1703	H826     7.2210    29.8560     8.9750	H	1	fragment1	0.0000
1704	C537    -1.9480    33.5740    14.6620	C.2	1	fragment1	0.0000
1705	C538    -1.0720    32.5410    14.0410	C.3	1	fragment1	0.0000
1706	N171     0.3210    32.7670    14.3630	N.3	1	fragment1	0.0000
1707	O164    -2.9240    34.0440    14.0470	O.2	1	fragment1	0.0000
1708	C539    -1.5610    31.1740    14.6090	C.3	1	fragment1	0.0000
1709	S9    -0.6160    29.8590    13.8310	S.3	1	fragment1	0.0000
1710	H827     0.5900    32.7360    15.3220	H	1	fragment1	0.0000
1711	H828    -1.1720    32.5560    12.9660	H	1	fragment1	0.0000
1712	H829    -2.6440    31.0480    14.3970	H	1	fragment1	0.0000
1713	H830    -1.4150    31.1540    15.7100	H	1	fragment1	0.0000
1714	C540    -2.5910    36.0210    15.9630	C.2	1	fragment1	0.0000
1715	C541    -2.3770    34.7270    16.7230	C.3	1	fragment1	0.0000
1716	N172    -1.6180    33.8110    15.9250	N.3	1	fragment1	0.0000
1717	O165    -1.6450    36.6140    15.4660	O.2	1	fragment1	0.0000
1718	C542    -1.6920    34.9750    18.0720	C.3	1	fragment1	0.0000
1719	C543    -2.5290    35.7550    19.0920	C.3	1	fragment1	0.0000
1720	C544    -1.7560    35.9290    20.4210	C.3	1	fragment1	0.0000
1721	C545    -2.5870    36.4810    21.5940	C.3	1	fragment1	0.0000
1722	N173    -1.8500    36.5800    22.8910	N.3	1	fragment1	0.0000
1723	H831    -0.8410    33.3710    16.3690	H	1	fragment1	0.0000
1724	H832    -3.3590    34.3030    16.8740	H	1	fragment1	0.0000
1725	H833    -0.7560    35.5420    17.8860	H	1	fragment1	0.0000
1726	H834    -1.4350    33.9900    18.5160	H	1	fragment1	0.0000
1727	H835    -3.4750    35.2060    19.2870	H	1	fragment1	0.0000
1728	H836    -2.7740    36.7560    18.6770	H	1	fragment1	0.0000
1729	H837    -0.9090    36.6240    20.2400	H	1	fragment1	0.0000
1730	H838    -1.3530    34.9380    20.7190	H	1	fragment1	0.0000
1731	H839    -3.4580    35.8130    21.7660	H	1	fragment1	0.0000
1732	H840    -2.9350    37.5050    21.3400	H	1	fragment1	0.0000
1733	H841    -1.0330    37.2130    22.7780	H	1	fragment1	0.0000
1734	H842    -1.5200    35.6360    23.1750	H	1	fragment1	0.0000
1735	H843    -2.4850    36.9600    23.6220	H	1	fragment1	0.0000
1736	C546    -4.2180    37.6420    13.7160	C.2	1	fragment1	0.0000
1737	C547    -4.2310    37.6510    15.2150	C.3	1	fragment1	0.0000
1738	N174    -3.8610    36.3970    15.8330	N.3	1	fragment1	0.0000
1739	O166    -4.4530    38.6530    13.0880	O.2	1	fragment1	0.0000
1740	H844    -4.6150    35.8300    16.1560	H	1	fragment1	0.0000
1741	H845    -3.5320    38.3990    15.5600	H	1	fragment1	0.0000
1742	H846    -5.2290    37.8920    15.5480	H	1	fragment1	0.0000
1743	C548    -5.2880    35.9640    11.1840	C.2	1	fragment1	0.0000
1744	C549    -3.9250    36.4960    11.6720	C.3	1	fragment1	0.0000
1745	N175    -3.9260    36.5270    13.1220	N.3	1	fragment1	0.0000
1746	O167    -6.1310    35.5940    11.9950	O.2	1	fragment1	0.0000
1747	C550    -2.7710    35.6170    11.2050	C.3	1	fragment1	0.0000
1748	C551    -1.4790    36.0440    11.9280	C.3	1	fragment1	0.0000
1749	O168    -3.0960    34.2960    11.5390	O.3	1	fragment1	0.0000
1750	H847    -3.7010    35.6840    13.6050	H	1	fragment1	0.0000
1751	H848    -3.8100    37.5060    11.3060	H	1	fragment1	0.0000
1752	H849    -2.6380    35.7010    10.1050	H	1	fragment1	0.0000
1753	H850    -3.0430    34.2440    12.4960	H	1	fragment1	0.0000
1754	H851    -1.5330    35.7660    13.0020	H	1	fragment1	0.0000
1755	H852    -1.3490    37.1450    11.8520	H	1	fragment1	0.0000
1756	H853    -0.6040    35.5320    11.4730	H	1	fragment1	0.0000
1757	C552    -6.7070    33.7460     9.4500	C.2	1	fragment1	0.0000
1758	C553    -6.8350    35.2940     9.4950	C.3	1	fragment1	0.0000
1759	N176    -5.5380    35.8720     9.8760	N.3	1	fragment1	0.0000
1760	O169    -6.4740    33.0830     8.4020	O.2	1	fragment1	0.0000
1761	C554    -7.3880    35.9040     8.1950	C.3	1	fragment1	0.0000
1762	C555    -8.4010    35.0280     7.5150	C.2	1	fragment1	0.0000
1763	O170    -9.1090    34.2450     8.1160	O.2	1	fragment1	0.0000
1764	O171    -8.4260    35.1810     6.2150	O.3	1	fragment1	0.0000
1765	H854    -4.9140    36.1640     9.1560	H	1	fragment1	0.0000
1766	H855    -7.5240    35.4730    10.3070	H	1	fragment1	0.0000
1767	H856    -6.5450    36.0750     7.4920	H	1	fragment1	0.0000
1768	H857    -7.8690    36.8770     8.4320	H	1	fragment1	0.0000
1769	C556    -7.6780    30.8560     9.9440	C.2	1	fragment1	0.0000
1770	C557    -6.6710    31.6800    10.7550	C.3	1	fragment1	0.0000
1771	N177    -6.8360    33.1360    10.6280	N.3	1	fragment1	0.0000
1772	O172    -7.4340    29.7160     9.5410	O.2	1	fragment1	0.0000
1773	C558    -6.5530    31.2470    12.2280	C.3	1	fragment1	0.0000
1774	C559    -5.3450    31.8820    12.9330	C.3	1	fragment1	0.0000
1775	C560    -7.8170    31.6670    12.9460	C.3	1	fragment1	0.0000
1776	H858    -7.0480    33.6330    11.4660	H	1	fragment1	0.0000
1777	H859    -5.7790    31.4010    10.2140	H	1	fragment1	0.0000
1778	H860    -6.4530    30.1420    12.2700	H	1	fragment1	0.0000
1779	H861    -5.4310    32.9900    12.9150	H	1	fragment1	0.0000
1780	H862    -4.4070    31.5900    12.4130	H	1	fragment1	0.0000
1781	H863    -5.3060    31.5470    13.9910	H	1	fragment1	0.0000
1782	H864    -8.7000    31.1800    12.4800	H	1	fragment1	0.0000
1783	H865    -7.9420    32.7690    12.8780	H	1	fragment1	0.0000
1784	H866    -7.7650    31.3610    14.0130	H	1	fragment1	0.0000
1785	C561    -9.3190    30.3440     7.5380	C.2	1	fragment1	0.0000
1786	C562    -9.8400    30.7660     8.9070	C.3	1	fragment1	0.0000
1787	N178    -8.8260    31.4430     9.6780	N.3	1	fragment1	0.0000
1788	O173    -9.8340    29.4360     6.8740	O.2	1	fragment1	0.0000
1789	C563   -10.9620    31.7940     8.7300	C.3	1	fragment1	0.0000
1790	C564   -12.3460    31.2550     9.0860	C.3	1	fragment1	0.0000
1791	C565   -13.3700    31.7320     8.0890	C.2	1	fragment1	0.0000
1792	O174   -13.9350    30.9190     7.3280	O.2	1	fragment1	0.0000
1793	N179   -13.5730    33.0590     8.0560	N.3	1	fragment1	0.0000
1794	H867    -9.0440    32.3640     9.9910	H	1	fragment1	0.0000
1795	H868   -10.1800    29.8950     9.4470	H	1	fragment1	0.0000
1796	H869   -10.9740    32.1260     7.6700	H	1	fragment1	0.0000
1797	H870   -10.7460    32.6690     9.3790	H	1	fragment1	0.0000
1798	H871   -12.6330    31.6090    10.0990	H	1	fragment1	0.0000
1799	H872   -12.3240    30.1440     9.0810	H	1	fragment1	0.0000
1800	H873   -14.2380    33.4470     7.4190	H	1	fragment1	0.0000
1801	H874   -13.0590    33.6590     8.6690	H	1	fragment1	0.0000
1802	C566    -7.1500    29.2390     5.8650	C.2	1	fragment1	0.0000
1803	C567    -7.6330    30.6910     5.8380	C.3	1	fragment1	0.0000
1804	N180    -8.2610    31.0130     7.1050	N.3	1	fragment1	0.0000
1805	O175    -7.0550    28.5430     4.8380	O.2	1	fragment1	0.0000
1806	C568    -6.4390    31.6080     5.6300	C.3	1	fragment1	0.0000
1807	H875    -7.8530    31.7600     7.6240	H	1	fragment1	0.0000
1808	H876    -8.3600    30.8270     5.0510	H	1	fragment1	0.0000
1809	H877    -5.7040    31.4700     6.4520	H	1	fragment1	0.0000
1810	H878    -6.7720    32.6680     5.6260	H	1	fragment1	0.0000
1811	H879    -5.9420    31.3690     4.6660	H	1	fragment1	0.0000
1812	C569    -7.3630    26.3120     6.9560	C.2	1	fragment1	0.0000
1813	C570    -6.3460    27.4280     7.2770	C.3	1	fragment1	0.0000
1814	N181    -6.8390    28.7880     7.0710	N.3	1	fragment1	0.0000
1815	O176    -7.0190    25.1560     6.6370	O.2	1	fragment1	0.0000
1816	C571    -5.6100    27.2920     8.6510	C.3	1	fragment1	0.0000
1817	C572    -4.3330    28.0770     8.6250	C.2	1	fragment1	0.0000
1818	C573    -4.1580    29.3190     9.0990	C.2	1	fragment1	0.0000
1819	C574    -3.0710    27.6870     8.0160	C.2	1	fragment1	0.0000
1820	C575    -2.2110    28.7900     8.1230	C.2	1	fragment1	0.0000
1821	C576    -2.6500    26.5680     7.2860	C.2	1	fragment1	0.0000
1822	C577    -0.9100    28.7300     7.6310	C.2	1	fragment1	0.0000
1823	C578    -1.3720    26.4940     6.7770	C.2	1	fragment1	0.0000
1824	C579    -0.5190    27.5760     6.9580	C.2	1	fragment1	0.0000
1825	N182    -2.8670    29.7420     8.8350	N.3	1	fragment1	0.0000
1826	H880    -6.9270    29.3530     7.8880	H	1	fragment1	0.0000
1827	H881    -5.6700    27.1950     6.4680	H	1	fragment1	0.0000
1828	H882    -5.3790    26.2230     8.8470	H	1	fragment1	0.0000
1829	H883    -6.2610    27.6790     9.4640	H	1	fragment1	0.0000
1830	H884    -4.9110    29.9010     9.6100	H	1	fragment1	0.0000
1831	H885    -2.4860    30.5950     9.1180	H	1	fragment1	0.0000
1832	H886    -3.3240    25.7430     7.1100	H	1	fragment1	0.0000
1833	H887    -0.2120    29.5440     7.7580	H	1	fragment1	0.0000
1834	H888    -1.0400    25.6130     6.2480	H	1	fragment1	0.0000
1835	H889     0.4840    27.5190     6.5620	H	1	fragment1	0.0000
1836	C580   -10.3560    25.7420     5.4210	C.2	1	fragment1	0.0000
1837	C581    -9.6130    25.5680     6.7480	C.3	1	fragment1	0.0000
1838	N183    -8.6430    26.6260     7.0200	N.3	1	fragment1	0.0000
1839	O177   -11.1970    24.9530     4.9890	O.2	1	fragment1	0.0000
1840	C582   -10.5310    25.3400     7.9630	C.3	1	fragment1	0.0000
1841	C583   -11.3460    26.5890     8.3150	C.3	1	fragment1	0.0000
1842	C584    -9.6950    24.9640     9.1880	C.3	1	fragment1	0.0000
1843	H890    -8.9870    27.5350     7.2410	H	1	fragment1	0.0000
1844	H891    -9.0660    24.6660     6.5180	H	1	fragment1	0.0000
1845	H892   -11.2470    24.5210     7.7380	H	1	fragment1	0.0000
1846	H893   -13.3390    27.1940     8.9260	H	1	fragment1	0.0000
1847	H894   -10.8690    27.0970     9.1800	H	1	fragment1	0.0000
1848	H895    -8.9790    25.7790     9.4270	H	1	fragment1	0.0000
1849	H896    -9.1200    24.0360     8.9830	H	1	fragment1	0.0000
1850	H897   -10.3590    24.8070    10.0650	H	1	fragment1	0.0000
1851	C585   -10.4770    26.1540     2.4730	C.2	1	fragment1	0.0000
1852	C586   -10.5990    27.2370     3.5270	C.3	1	fragment1	0.0000
1853	N184   -10.0380    26.8380     4.7950	N.3	1	fragment1	0.0000
1854	O178    -9.4060    25.6190     2.2060	O.2	1	fragment1	0.0000
1855	C587    -9.9240    28.5100     3.0310	C.3	1	fragment1	0.0000
1856	C588   -10.8690    29.5420     2.4300	C.3	1	fragment1	0.0000
1857	C589   -10.1980    30.3400     1.3040	C.3	1	fragment1	0.0000
1858	C590    -7.8510    29.8080     0.5530	C.2	1	fragment1	0.0000
1859	N185    -8.7250    30.3580     1.4210	N.3	1	fragment1	0.0000
1860	N186    -8.2490    29.1810    -0.5540	N.3	1	fragment1	0.0000
1861	N187    -6.5360    29.9050     0.8000	N.2	1	fragment1	0.0000
1862	H898    -9.3700    27.4710     5.1770	H	1	fragment1	0.0000
1863	H899   -11.6580    27.4000     3.6640	H	1	fragment1	0.0000
1864	H900    -9.1790    28.2290     2.2580	H	1	fragment1	0.0000
1865	H901    -9.3960    28.9800     3.8870	H	1	fragment1	0.0000
1866	H902   -11.1940    30.2440     3.2270	H	1	fragment1	0.0000
1867	H903   -11.7620    29.0220     2.0230	H	1	fragment1	0.0000
1868	H904   -10.5490    31.3940     1.3350	H	1	fragment1	0.0000
1869	H905   -10.4500    29.8830     0.3240	H	1	fragment1	0.0000
1870	H906    -8.3400    30.8210     2.2180	H	1	fragment1	0.0000
1871	H907    -9.2240    29.1070    -0.7630	H	1	fragment1	0.0000
1872	H908    -7.5730    28.7850    -1.1750	H	1	fragment1	0.0000
1873	H909    -6.2150    30.3800     1.6190	H	1	fragment1	0.0000
1874	H910    -5.8770    29.5020     0.1650	H	1	fragment1	0.0000
1875	C591   -11.8150    23.4850     1.3370	C.2	1	fragment1	0.0000
1876	C592   -11.6300    24.8730     0.8090	C.3	1	fragment1	0.0000
1877	N188   -11.5990    25.8610     1.8500	N.3	1	fragment1	0.0000
1878	O179   -11.9570    22.5750     0.5460	O.2	1	fragment1	0.0000
1879	H911   -12.4650    26.3040     2.0690	H	1	fragment1	0.0000
1880	H912   -10.6940    24.9250     0.2730	H	1	fragment1	0.0000
1881	H913   -12.4510    25.1120     0.1490	H	1	fragment1	0.0000
1882	C593   -13.3880    21.4500     3.3150	C.2	1	fragment1	0.0000
1883	C594   -11.9600    21.9450     3.1780	C.3	1	fragment1	0.0000
1884	N189   -11.8100    23.3120     2.6640	N.3	1	fragment1	0.0000
1885	O180   -14.2890    22.1880     3.6730	O.2	1	fragment1	0.0000
1886	C595   -11.2140    21.7380     4.4950	C.3	1	fragment1	0.0000
1887	S10    -9.4760    22.2630     4.3340	S.3	1	fragment1	0.0000
1888	H914   -11.7110    24.0530     3.3230	H	1	fragment1	0.0000
1889	H915   -11.5770    21.2700     2.4280	H	1	fragment1	0.0000
1890	H916   -11.2580    20.6640     4.7740	H	1	fragment1	0.0000
1891	H917   -11.7130    22.3280     5.2930	H	1	fragment1	0.0000
1892	C596   -15.0510    19.1630     4.6820	C.2	1	fragment1	0.0000
1893	C597   -14.9170    19.5750     3.2360	C.3	1	fragment1	0.0000
1894	N190   -13.5810    20.1580     3.0790	N.3	1	fragment1	0.0000
1895	O181   -14.6250    18.0870     5.0830	O.2	1	fragment1	0.0000
1896	C598   -15.1550    18.3880     2.3080	C.3	1	fragment1	0.0000
1897	C599   -16.6230    18.0230     2.2460	C.3	1	fragment1	0.0000
1898	C600   -16.8670    16.9320     1.2290	C.3	1	fragment1	0.0000
1899	C601   -15.4140    16.4520    -0.6930	C.2	1	fragment1	0.0000
1900	N191   -15.6280    16.4600     0.6190	N.3	1	fragment1	0.0000
1901	N192   -16.3260    16.9030    -1.5570	N.3	1	fragment1	0.0000
1902	N193   -14.2560    15.9930    -1.1560	N.2	1	fragment1	0.0000
1903	H918   -12.8500    19.5430     2.7930	H	1	fragment1	0.0000
1904	H919   -15.6370    20.3520     3.0280	H	1	fragment1	0.0000
1905	H920   -14.5780    17.5140     2.6780	H	1	fragment1	0.0000
1906	H921   -14.8000    18.6460     1.2880	H	1	fragment1	0.0000
1907	H922   -17.2120    18.9220     1.9670	H	1	fragment1	0.0000
1908	H923   -16.9560    17.6720     3.2460	H	1	fragment1	0.0000
1909	H924   -17.5170    17.3190     0.4150	H	1	fragment1	0.0000
1910	H925   -17.3510    16.0630     1.7230	H	1	fragment1	0.0000
1911	H926   -14.9020    16.1250     1.2190	H	1	fragment1	0.0000
1912	H927   -17.1980    17.2590    -1.2230	H	1	fragment1	0.0000
1913	H928   -16.1370    16.8840    -2.5390	H	1	fragment1	0.0000
1914	H929   -13.5600    15.6600    -0.5200	H	1	fragment1	0.0000
1915	H930   -14.0810    15.9810    -2.1400	H	1	fragment1	0.0000
1916	C602   -17.4490    19.9060     7.1410	C.3	1	fragment1	0.0000
1917	C603   -15.9760    19.8890     6.8110	C.3	1	fragment1	0.0000
1918	N194   -15.3450    20.2260     5.4040	N.3	1	fragment1	0.0000
1919	C604   -15.2350    20.7820     7.8450	C.3	1	fragment1	0.0000
1920	C605   -13.7120    20.9170     7.6410	C.3	1	fragment1	0.0000
1921	C606   -13.3080    22.3150     8.1500	C.3	1	fragment1	0.0000
1922	C607   -12.9700    19.8680     8.4340	C.3	1	fragment1	0.0000
1923	H931   -15.2030    21.1740     5.1350	H	1	fragment1	0.0000
1924	H932   -15.8320    18.8400     7.0220	H	1	fragment1	0.0000
1925	H933   -15.4100    20.3550     8.8550	H	1	fragment1	0.0000
1926	H934   -15.6790    21.7990     7.8010	H	1	fragment1	0.0000
1927	H935   -13.4580    20.8120     6.5650	H	1	fragment1	0.0000
1928	H936   -13.5640    22.4180     9.2260	H	1	fragment1	0.0000
1929	H937   -13.8530    23.0970     7.5790	H	1	fragment1	0.0000
1930	H938   -12.2130    22.4590     8.0310	H	1	fragment1	0.0000
1931	H939   -13.2800    18.8520     8.1080	H	1	fragment1	0.0000
1932	H940   -13.2000    19.9790     9.5150	H	1	fragment1	0.0000
1933	H941   -11.8760    19.9740     8.2710	H	1	fragment1	0.0000
@<TRIPOS>BOND
1	1	4	2
2	1	2	1
3	2	5	1
4	2	3	1
5	2	11	1
6	3	10	1
7	5	6	1
8	5	12	1
9	5	13	1
10	6	7	1
11	6	14	1
12	6	15	1
13	7	8	1
14	7	16	1
15	7	17	1
16	8	9	1
17	8	18	1
18	8	19	1
19	9	20	1
20	9	21	1
21	9	22	1
22	23	26	2
23	23	24	1
24	24	27	1
25	24	25	1
26	24	31	1
27	25	30	1
28	27	28	1
29	27	29	1
30	27	32	1
31	28	33	1
32	28	34	1
33	28	35	1
34	29	36	1
35	29	37	1
36	29	38	1
37	39	42	2
38	39	40	1
39	40	43	1
40	40	41	1
41	40	51	1
42	41	50	1
43	43	44	1
44	43	52	1
45	43	53	1
46	44	45	1
47	44	46	2
48	45	47	2
49	45	54	1
50	46	48	1
51	46	55	1
52	47	49	1
53	47	56	1
54	48	49	2
55	48	57	1
56	49	58	1
57	59	62	2
58	59	60	1
59	60	61	1
60	60	64	1
61	60	65	1
62	61	63	1
63	66	69	2
64	66	67	1
65	67	70	1
66	67	68	1
67	67	78	1
68	68	77	1
69	70	71	1
70	70	79	1
71	70	80	1
72	71	72	1
73	71	81	1
74	71	82	1
75	72	74	1
76	72	83	1
77	72	84	1
78	73	74	1
79	73	75	1
80	73	76	2
81	74	85	1
82	75	86	1
83	75	87	1
84	76	88	1
85	76	89	1
86	90	93	2
87	90	91	1
88	91	94	1
89	91	92	1
90	91	97	1
91	92	96	1
92	94	95	1
93	94	98	1
94	94	99	1
95	100	103	2
96	100	101	1
97	101	104	1
98	101	102	1
99	101	110	1
100	102	109	1
101	104	105	1
102	104	111	1
103	104	112	1
104	105	106	1
105	105	113	1
106	105	114	1
107	106	107	2
108	106	108	1
109	115	118	2
110	115	116	1
111	116	119	1
112	116	117	1
113	116	124	1
114	117	123	1
115	119	120	1
116	119	125	1
117	119	126	1
118	120	121	1
119	120	122	1
120	120	127	1
121	121	128	1
122	121	129	1
123	121	130	1
124	122	131	1
125	122	132	1
126	122	133	1
127	134	137	2
128	134	135	1
129	135	138	1
130	135	136	1
131	135	140	1
132	136	139	1
133	138	141	1
134	138	142	1
135	138	143	1
136	144	147	2
137	144	145	1
138	145	148	1
139	145	146	1
140	145	150	1
141	146	149	1
142	148	151	1
143	148	152	1
144	148	153	1
145	154	157	2
146	154	155	1
147	155	158	1
148	155	156	1
149	155	160	1
150	156	159	1
151	158	161	1
152	158	162	1
153	158	163	1
154	164	167	2
155	164	165	1
156	165	168	1
157	165	166	1
158	165	173	1
159	166	172	1
160	168	169	1
161	168	174	1
162	168	175	1
163	169	170	1
164	169	176	1
165	169	177	1
166	170	171	1
167	171	178	1
168	171	179	1
169	171	180	1
170	181	184	2
171	181	182	1
172	182	185	1
173	182	183	1
174	182	191	1
175	183	190	1
176	185	186	1
177	185	192	1
178	185	193	1
179	186	187	1
180	186	194	1
181	186	195	1
182	187	188	1
183	187	196	1
184	187	197	1
185	188	189	1
186	188	198	1
187	188	199	1
188	189	200	1
189	189	201	1
190	189	202	1
191	203	206	2
192	203	204	1
193	204	207	1
194	204	205	1
195	204	215	1
196	205	214	1
197	207	208	1
198	207	216	1
199	207	217	1
200	208	209	1
201	208	218	1
202	208	219	1
203	209	211	1
204	209	220	1
205	209	221	1
206	210	211	1
207	210	212	1
208	210	213	2
209	211	222	1
210	212	223	1
211	212	224	1
212	213	225	1
213	213	226	1
214	227	229	1
215	229	231	1
216	229	242	1
217	231	236	1
218	234	236	2
219	234	237	2
220	236	240	1
221	237	239	2
222	239	240	2
223	242	243	2
224	244	247	2
225	244	245	1
226	245	246	1
227	245	249	1
228	245	250	1
229	246	248	1
230	251	254	2
231	251	252	1
232	252	255	1
233	252	253	1
234	252	260	1
235	253	259	1
236	255	256	1
237	255	261	1
238	255	262	1
239	256	257	1
240	256	258	1
241	256	263	1
242	257	264	1
243	257	265	1
244	257	266	1
245	258	267	1
246	258	268	1
247	258	269	1
248	270	273	2
249	270	271	1
250	271	274	1
251	271	272	1
252	271	279	1
253	272	278	1
254	274	275	1
255	274	280	1
256	274	281	1
257	275	276	2
258	275	277	1
259	282	285	2
260	282	283	1
261	283	286	1
262	283	284	1
263	283	291	1
264	284	290	1
265	286	287	1
266	286	292	1
267	286	293	1
268	287	288	2
269	287	289	1
270	289	294	1
271	289	295	1
272	296	299	2
273	296	297	1
274	297	300	1
275	297	298	1
276	297	309	1
277	298	308	1
278	300	301	1
279	300	310	1
280	300	311	1
281	301	302	1
282	301	303	2
283	302	304	2
284	302	312	1
285	303	305	1
286	303	313	1
287	304	306	1
288	304	314	1
289	305	306	2
290	305	315	1
291	306	307	1
292	307	316	1
293	317	320	2
294	317	318	1
295	318	321	1
296	318	319	1
297	318	329	1
298	319	328	1
299	321	322	1
300	321	330	1
301	321	331	1
302	322	323	1
303	322	332	1
304	322	333	1
305	323	325	1
306	323	334	1
307	323	335	1
308	324	325	1
309	324	326	1
310	324	327	2
311	325	336	1
312	326	337	1
313	326	338	1
314	327	339	1
315	327	340	1
316	341	344	2
317	341	342	1
318	342	343	1
319	342	346	1
320	342	347	1
321	343	345	1
322	348	351	2
323	348	349	1
324	349	352	1
325	349	350	1
326	349	361	1
327	350	360	1
328	352	353	1
329	352	362	1
330	352	363	1
331	353	354	1
332	353	355	2
333	354	356	2
334	354	364	1
335	355	357	1
336	355	365	1
337	356	358	1
338	356	366	1
339	357	358	2
340	357	367	1
341	358	359	1
342	359	368	1
343	369	372	2
344	369	370	1
345	370	373	1
346	370	371	1
347	370	376	1
348	371	375	1
349	373	374	1
350	373	377	1
351	373	378	1
352	374	379	1
353	380	383	2
354	380	381	1
355	381	384	1
356	381	382	1
357	381	389	1
358	382	388	1
359	384	385	1
360	384	390	1
361	384	391	1
362	385	386	1
363	385	387	1
364	385	392	1
365	386	393	1
366	386	394	1
367	386	395	1
368	387	396	1
369	387	397	1
370	387	398	1
371	399	402	2
372	399	400	1
373	400	401	1
374	400	404	1
375	400	405	1
376	401	403	1
377	406	409	2
378	406	407	1
379	407	410	1
380	407	408	1
381	407	415	1
382	408	414	1
383	410	411	1
384	410	416	1
385	410	417	1
386	411	412	2
387	411	413	1
388	413	418	1
389	413	419	1
390	420	423	2
391	420	421	1
392	421	424	1
393	421	422	1
394	421	435	1
395	422	434	1
396	424	425	1
397	424	436	1
398	424	437	1
399	425	426	2
400	425	427	1
401	426	433	1
402	426	438	1
403	427	428	2
404	427	429	1
405	428	430	1
406	428	433	1
407	429	431	2
408	429	440	1
409	430	432	2
410	430	441	1
411	431	432	1
412	431	442	1
413	432	443	1
414	433	439	1
415	444	447	2
416	444	445	1
417	445	448	1
418	445	446	1
419	445	452	1
420	446	451	1
421	448	449	1
422	448	450	1
423	448	453	1
424	449	454	1
425	449	455	1
426	449	456	1
427	450	457	1
428	450	458	1
429	450	459	1
430	460	463	2
431	460	461	1
432	461	464	1
433	461	462	1
434	461	467	1
435	462	466	1
436	464	465	1
437	464	468	1
438	464	469	1
439	470	473	2
440	470	471	1
441	471	474	1
442	471	472	1
443	471	476	1
444	472	475	1
445	474	477	1
446	474	478	1
447	474	479	1
448	480	483	2
449	480	481	1
450	481	484	1
451	481	482	1
452	481	486	1
453	482	485	1
454	484	487	1
455	484	488	1
456	484	489	1
457	490	493	2
458	490	491	1
459	491	494	1
460	491	492	1
461	491	500	1
462	492	499	1
463	494	495	1
464	494	501	1
465	494	502	1
466	495	496	1
467	495	503	1
468	495	504	1
469	496	497	1
470	496	505	1
471	496	506	1
472	497	498	1
473	497	507	1
474	497	508	1
475	498	509	1
476	498	510	1
477	498	511	1
478	512	515	2
479	512	513	1
480	513	516	1
481	513	514	1
482	513	524	1
483	514	523	1
484	516	517	1
485	516	525	1
486	516	526	1
487	517	518	1
488	517	519	2
489	518	520	2
490	518	527	1
491	519	521	1
492	519	528	1
493	520	522	1
494	520	529	1
495	521	522	2
496	521	530	1
497	522	531	1
498	532	535	2
499	532	533	1
500	533	536	1
501	533	534	1
502	533	542	1
503	534	541	1
504	536	537	1
505	536	543	1
506	536	544	1
507	537	538	1
508	537	545	1
509	537	546	1
510	538	539	2
511	538	540	1
512	547	550	2
513	547	548	1
514	548	551	1
515	548	549	1
516	548	554	1
517	549	553	1
518	551	552	1
519	551	555	1
520	551	556	1
521	552	557	1
522	558	561	2
523	558	559	1
524	559	562	1
525	559	560	1
526	559	567	1
527	560	566	1
528	562	563	1
529	562	568	1
530	562	569	1
531	563	564	2
532	563	565	1
533	565	570	1
534	565	571	1
535	572	575	2
536	572	573	1
537	573	576	1
538	573	574	1
539	573	584	1
540	574	583	1
541	576	577	1
542	576	585	1
543	576	586	1
544	577	578	1
545	577	579	2
546	578	580	2
547	578	587	1
548	579	581	1
549	579	588	1
550	580	582	1
551	580	589	1
552	581	582	2
553	581	590	1
554	582	591	1
555	592	595	2
556	592	593	1
557	593	596	1
558	593	594	1
559	593	601	1
560	594	600	1
561	596	597	1
562	596	602	1
563	596	603	1
564	597	598	2
565	597	599	1
566	599	604	1
567	599	605	1
568	606	609	2
569	606	607	1
570	607	610	1
571	607	608	1
572	607	614	1
573	608	613	1
574	610	611	1
575	610	612	1
576	610	615	1
577	611	617	1
578	611	618	1
579	611	619	1
580	612	616	1
581	620	623	2
582	620	621	1
583	621	624	1
584	621	622	1
585	621	630	1
586	622	629	1
587	624	625	1
588	624	631	1
589	624	632	1
590	625	626	1
591	625	633	1
592	625	634	1
593	626	627	2
594	626	628	1
595	628	635	1
596	628	636	1
597	637	640	2
598	637	638	1
599	638	641	1
600	638	639	1
601	638	643	1
602	639	642	1
603	641	644	1
604	641	645	1
605	641	646	1
606	647	650	2
607	647	648	1
608	648	651	1
609	648	649	1
610	648	655	1
611	649	654	1
612	651	652	1
613	651	653	1
614	651	656	1
615	652	658	1
616	652	659	1
617	652	660	1
618	653	657	1
619	661	664	2
620	661	662	1
621	662	665	1
622	662	663	1
623	662	670	1
624	663	669	1
625	665	666	1
626	665	671	1
627	665	672	1
628	666	667	2
629	666	668	1
630	668	673	1
631	668	674	1
632	675	678	2
633	675	676	1
634	676	679	1
635	676	677	1
636	676	687	1
637	677	686	1
638	679	680	1
639	679	688	1
640	679	689	1
641	680	681	1
642	680	690	1
643	680	691	1
644	681	683	1
645	681	692	1
646	681	693	1
647	682	683	1
648	682	684	1
649	682	685	2
650	683	694	1
651	684	695	1
652	684	696	1
653	685	697	1
654	685	698	1
655	699	702	2
656	699	700	1
657	700	703	1
658	700	701	1
659	700	708	1
660	701	707	1
661	703	704	1
662	703	709	1
663	703	710	1
664	704	705	2
665	704	706	1
666	706	711	1
667	706	712	1
668	713	716	2
669	713	714	1
670	714	717	1
671	714	715	1
672	714	721	1
673	715	720	1
674	717	718	1
675	717	719	1
676	717	722	1
677	718	724	1
678	718	725	1
679	718	726	1
680	719	723	1
681	727	730	2
682	727	728	1
683	728	731	1
684	728	729	1
685	728	736	1
686	729	735	1
687	731	732	1
688	731	737	1
689	731	738	1
690	732	733	2
691	732	734	1
692	739	742	2
693	739	740	1
694	740	741	1
695	740	744	1
696	740	745	1
697	741	743	1
698	746	749	2
699	746	747	1
700	747	750	1
701	747	748	1
702	747	753	1
703	748	752	1
704	750	751	1
705	750	754	1
706	750	755	1
707	751	756	1
708	757	760	2
709	757	758	1
710	758	761	1
711	758	759	1
712	758	765	1
713	759	764	1
714	761	762	1
715	761	763	1
716	761	766	1
717	762	768	1
718	762	769	1
719	762	770	1
720	763	767	1
721	771	774	2
722	771	772	1
723	772	775	1
724	772	773	1
725	772	780	1
726	773	779	1
727	775	776	1
728	775	781	1
729	775	782	1
730	776	777	2
731	776	778	1
732	783	786	2
733	783	784	1
734	784	787	1
735	784	785	1
736	784	796	1
737	785	795	1
738	787	788	1
739	787	797	1
740	787	798	1
741	788	789	1
742	788	790	2
743	789	791	2
744	789	799	1
745	790	792	1
746	790	800	1
747	791	793	1
748	791	801	1
749	792	793	2
750	792	802	1
751	793	794	1
752	794	803	1
753	804	807	2
754	804	805	1
755	805	806	1
756	805	809	1
757	805	810	1
758	806	808	1
759	811	814	2
760	811	812	1
761	812	815	1
762	812	813	1
763	812	819	1
764	813	818	1
765	815	816	1
766	815	817	1
767	815	820	1
768	816	821	1
769	816	822	1
770	817	823	1
771	817	824	1
772	817	825	1
773	826	829	2
774	826	827	1
775	827	830	1
776	827	828	1
777	827	835	1
778	828	834	1
779	830	831	1
780	830	836	1
781	830	837	1
782	831	832	1
783	831	833	1
784	831	838	1
785	832	839	1
786	832	840	1
787	832	841	1
788	833	842	1
789	833	843	1
790	833	844	1
791	845	848	2
792	845	846	1
793	846	849	1
794	846	847	1
795	846	855	1
796	847	854	1
797	849	850	1
798	849	856	1
799	849	857	1
800	850	851	1
801	850	858	1
802	850	859	1
803	851	852	2
804	851	853	1
805	853	860	1
806	853	861	1
807	862	865	2
808	862	863	1
809	863	866	1
810	863	864	1
811	863	870	1
812	864	869	1
813	866	867	1
814	866	868	1
815	866	871	1
816	867	872	1
817	867	873	1
818	868	874	1
819	868	875	1
820	868	876	1
821	877	880	2
822	877	878	1
823	878	881	1
824	878	879	1
825	878	886	1
826	879	885	1
827	881	882	1
828	881	887	1
829	881	888	1
830	882	883	2
831	882	884	1
832	884	889	1
833	884	890	1
834	891	894	2
835	891	892	1
836	892	895	1
837	892	893	1
838	892	898	1
839	893	897	1
840	895	896	1
841	895	899	1
842	895	900	1
843	896	901	1
844	902	905	2
845	902	903	1
846	903	906	1
847	903	904	1
848	903	914	1
849	904	913	1
850	906	907	1
851	906	915	1
852	906	916	1
853	907	908	1
854	907	917	1
855	907	918	1
856	908	910	1
857	908	919	1
858	908	920	1
859	909	910	1
860	909	911	1
861	909	912	2
862	910	921	1
863	911	922	1
864	911	923	1
865	912	924	1
866	912	925	1
867	926	929	2
868	926	927	1
869	927	930	1
870	927	928	1
871	927	941	1
872	928	940	1
873	930	931	1
874	930	942	1
875	930	943	1
876	931	932	2
877	931	933	1
878	932	939	1
879	932	944	1
880	933	934	2
881	933	935	1
882	934	936	1
883	934	939	1
884	935	937	2
885	935	946	1
886	936	938	2
887	936	947	1
888	937	938	1
889	937	948	1
890	938	949	1
891	939	945	1
892	950	953	2
893	950	951	1
894	951	954	1
895	951	952	1
896	951	965	1
897	952	964	1
898	954	955	1
899	954	966	1
900	954	967	1
901	955	956	2
902	955	957	1
903	956	963	1
904	956	968	1
905	957	958	2
906	957	959	1
907	958	960	1
908	958	963	1
909	959	961	2
910	959	970	1
911	960	962	2
912	960	971	1
913	961	962	1
914	961	972	1
915	962	973	1
916	963	969	1
917	974	977	2
918	974	975	1
919	975	978	1
920	975	976	1
921	975	981	1
922	976	980	1
923	978	979	1
924	978	982	1
925	978	983	1
926	984	987	2
927	984	985	1
928	985	988	1
929	985	986	1
930	985	993	1
931	986	992	1
932	988	989	1
933	988	994	1
934	988	995	1
935	989	990	2
936	989	991	1
937	991	996	1
938	991	997	1
939	998	1001	2
940	998	999	1
941	999	1002	1
942	999	1000	1
943	999	1007	1
944	1000	1006	1
945	1002	1003	1
946	1002	1008	1
947	1002	1009	1
948	1003	1004	2
949	1003	1005	1
950	1010	1013	2
951	1010	1011	1
952	1011	1012	1
953	1011	1015	1
954	1011	1016	1
955	1012	1014	1
956	1017	1020	2
957	1017	1018	1
958	1018	1021	1
959	1018	1019	1
960	1018	1029	1
961	1019	1028	1
962	1021	1022	1
963	1021	1030	1
964	1021	1031	1
965	1022	1023	1
966	1022	1032	1
967	1022	1033	1
968	1023	1025	1
969	1023	1034	1
970	1023	1035	1
971	1024	1025	1
972	1024	1026	1
973	1024	1027	2
974	1025	1036	1
975	1026	1037	1
976	1026	1038	1
977	1027	1039	1
978	1027	1040	1
979	1041	1044	2
980	1041	1042	1
981	1042	1045	1
982	1042	1043	1
983	1042	1049	1
984	1043	1048	1
985	1045	1046	1
986	1045	1047	1
987	1045	1050	1
988	1046	1052	1
989	1046	1053	1
990	1046	1054	1
991	1047	1051	1
992	1055	1058	2
993	1055	1056	1
994	1056	1059	1
995	1056	1057	1
996	1056	1062	1
997	1059	1060	1
998	1059	1063	1
999	1059	1064	1
1000	1060	1061	1
1001	1060	1065	1
1002	1060	1066	1
1003	1061	1057	1
1004	1061	1067	1
1005	1061	1068	1
1006	1069	1072	2
1007	1069	1070	1
1008	1070	1071	1
1009	1070	1074	1
1010	1070	1075	1
1011	1071	1073	1
1012	1076	1079	2
1013	1076	1077	1
1014	1077	1080	1
1015	1077	1078	1
1016	1077	1083	1
1017	1078	1082	1
1018	1080	1081	1
1019	1080	1084	1
1020	1080	1085	1
1021	1081	1086	1
1022	1087	1090	2
1023	1087	1088	1
1024	1088	1091	1
1025	1088	1089	1
1026	1088	1099	1
1027	1089	1098	1
1028	1091	1092	1
1029	1091	1100	1
1030	1091	1101	1
1031	1092	1093	1
1032	1092	1102	1
1033	1092	1103	1
1034	1093	1095	1
1035	1093	1104	1
1036	1093	1105	1
1037	1094	1095	1
1038	1094	1096	1
1039	1094	1097	2
1040	1095	1106	1
1041	1096	1107	1
1042	1096	1108	1
1043	1097	1109	1
1044	1097	1110	1
1045	1111	1114	2
1046	1111	1112	1
1047	1112	1115	1
1048	1112	1113	1
1049	1112	1120	1
1050	1113	1119	1
1051	1115	1116	1
1052	1115	1121	1
1053	1115	1122	1
1054	1116	1117	2
1055	1116	1118	1
1056	1118	1123	1
1057	1118	1124	1
1058	1125	1128	2
1059	1125	1126	1
1060	1126	1129	1
1061	1126	1127	1
1062	1126	1134	1
1063	1127	1133	1
1064	1129	1130	1
1065	1129	1135	1
1066	1129	1136	1
1067	1130	1131	1
1068	1130	1132	1
1069	1130	1137	1
1070	1131	1138	1
1071	1131	1139	1
1072	1131	1140	1
1073	1132	1141	1
1074	1132	1142	1
1075	1132	1143	1
1076	1144	1147	2
1077	1144	1145	1
1078	1145	1148	1
1079	1145	1146	1
1080	1145	1151	1
1081	1146	1150	1
1082	1148	1149	1
1083	1148	1152	1
1084	1148	1153	1
1085	1154	1157	2
1086	1154	1155	1
1087	1155	1158	1
1088	1155	1156	1
1089	1155	1163	1
1090	1156	1162	1
1091	1158	1159	1
1092	1158	1164	1
1093	1158	1165	1
1094	1159	1160	2
1095	1159	1161	1
1096	1161	1166	1
1097	1161	1167	1
1098	1168	1171	2
1099	1168	1169	1
1100	1169	1172	1
1101	1169	1170	1
1102	1169	1176	1
1103	1170	1175	1
1104	1172	1173	1
1105	1172	1174	1
1106	1172	1177	1
1107	1173	1178	1
1108	1173	1179	1
1109	1174	1180	1
1110	1174	1181	1
1111	1174	1182	1
1112	1183	1186	2
1113	1183	1184	1
1114	1184	1187	1
1115	1184	1185	1
1116	1184	1190	1
1117	1187	1188	1
1118	1187	1191	1
1119	1187	1192	1
1120	1188	1189	1
1121	1188	1193	1
1122	1188	1194	1
1123	1189	1185	1
1124	1189	1195	1
1125	1189	1196	1
1126	1197	1200	2
1127	1197	1198	1
1128	1198	1201	1
1129	1198	1199	1
1130	1198	1204	1
1131	1199	1203	1
1132	1201	1202	1
1133	1201	1205	1
1134	1201	1206	1
1135	1207	1210	2
1136	1207	1208	1
1137	1208	1211	1
1138	1208	1209	1
1139	1208	1214	1
1140	1209	1213	1
1141	1211	1212	1
1142	1211	1215	1
1143	1211	1216	1
1144	1212	1217	1
1145	1218	1221	2
1146	1218	1219	1
1147	1219	1222	1
1148	1219	1220	1
1149	1219	1224	1
1150	1220	1223	1
1151	1222	1225	1
1152	1222	1226	1
1153	1222	1227	1
1154	1228	1231	2
1155	1228	1229	1
1156	1229	1232	1
1157	1229	1230	1
1158	1229	1237	1
1159	1230	1236	1
1160	1232	1233	1
1161	1232	1238	1
1162	1232	1239	1
1163	1233	1234	1
1164	1233	1235	1
1165	1233	1240	1
1166	1234	1241	1
1167	1234	1242	1
1168	1234	1243	1
1169	1235	1244	1
1170	1235	1245	1
1171	1235	1246	1
1172	1247	1250	2
1173	1247	1248	1
1174	1248	1251	1
1175	1248	1249	1
1176	1248	1256	1
1177	1249	1255	1
1178	1251	1252	1
1179	1251	1257	1
1180	1251	1258	1
1181	1252	1253	1
1182	1252	1254	1
1183	1252	1259	1
1184	1253	1260	1
1185	1253	1261	1
1186	1253	1262	1
1187	1254	1263	1
1188	1254	1264	1
1189	1254	1265	1
1190	1266	1269	2
1191	1266	1267	1
1192	1267	1270	1
1193	1267	1268	1
1194	1267	1273	1
1195	1268	1272	1
1196	1270	1271	1
1197	1270	1274	1
1198	1270	1275	1
1199	1271	1276	1
1200	1277	1280	2
1201	1277	1278	1
1202	1278	1281	1
1203	1278	1279	1
1204	1278	1284	1
1205	1279	1283	1
1206	1281	1282	1
1207	1281	1285	1
1208	1281	1286	1
1209	1282	1287	1
1210	1288	1291	2
1211	1288	1289	1
1212	1289	1292	1
1213	1289	1290	1
1214	1289	1297	1
1215	1290	1296	1
1216	1292	1293	1
1217	1292	1298	1
1218	1292	1299	1
1219	1293	1294	2
1220	1293	1295	1
1221	1300	1303	2
1222	1300	1301	1
1223	1301	1304	1
1224	1301	1302	1
1225	1301	1308	1
1226	1302	1307	1
1227	1304	1305	1
1228	1304	1306	1
1229	1304	1309	1
1230	1305	1310	1
1231	1305	1311	1
1232	1306	1312	1
1233	1306	1313	1
1234	1306	1314	1
1235	1315	1318	2
1236	1315	1316	1
1237	1316	1319	1
1238	1316	1317	1
1239	1316	1323	1
1240	1317	1322	1
1241	1319	1320	1
1242	1319	1321	1
1243	1319	1324	1
1244	1320	1326	1
1245	1320	1327	1
1246	1320	1328	1
1247	1321	1325	1
1248	1329	1332	2
1249	1329	1330	1
1250	1330	1333	1
1251	1330	1331	1
1252	1330	1335	1
1253	1331	1334	1
1254	1333	1336	1
1255	1333	1337	1
1256	1333	1338	1
1257	1339	1342	2
1258	1339	1340	1
1259	1340	1343	1
1260	1340	1341	1
1261	1340	1345	1
1262	1341	1344	1
1263	1343	1346	1
1264	1343	1347	1
1265	1343	1348	1
1266	1349	1352	2
1267	1349	1350	1
1268	1350	1353	1
1269	1350	1351	1
1270	1350	1357	1
1271	1351	1356	1
1272	1353	1354	1
1273	1353	1355	1
1274	1353	1358	1
1275	1354	1359	1
1276	1354	1360	1
1277	1354	1361	1
1278	1355	1362	1
1279	1355	1363	1
1280	1355	1364	1
1281	1365	1368	2
1282	1365	1366	1
1283	1366	1369	1
1284	1366	1367	1
1285	1366	1374	1
1286	1367	1373	1
1287	1369	1370	1
1288	1369	1375	1
1289	1369	1376	1
1290	1370	1371	2
1291	1370	1372	1
1292	1372	1377	1
1293	1372	1378	1
1294	1379	1382	2
1295	1379	1380	1
1296	1380	1383	1
1297	1380	1381	1
1298	1380	1386	1
1299	1381	1385	1
1300	1383	1384	1
1301	1383	1387	1
1302	1383	1388	1
1303	1389	1392	2
1304	1389	1390	1
1305	1390	1393	1
1306	1390	1391	1
1307	1390	1395	1
1308	1391	1394	1
1309	1393	1396	1
1310	1393	1397	1
1311	1393	1398	1
1312	1399	1402	2
1313	1399	1400	1
1314	1400	1403	1
1315	1400	1401	1
1316	1400	1409	1
1317	1401	1408	1
1318	1403	1404	1
1319	1403	1410	1
1320	1403	1411	1
1321	1404	1405	1
1322	1404	1412	1
1323	1404	1413	1
1324	1405	1406	1
1325	1405	1414	1
1326	1405	1415	1
1327	1406	1407	1
1328	1406	1416	1
1329	1406	1417	1
1330	1407	1418	1
1331	1407	1419	1
1332	1407	1420	1
1333	1421	1424	2
1334	1421	1422	1
1335	1422	1425	1
1336	1422	1423	1
1337	1422	1431	1
1338	1423	1430	1
1339	1425	1426	1
1340	1425	1432	1
1341	1425	1433	1
1342	1426	1427	1
1343	1426	1434	1
1344	1426	1435	1
1345	1427	1428	1
1346	1427	1436	1
1347	1427	1437	1
1348	1428	1429	1
1349	1428	1438	1
1350	1428	1439	1
1351	1429	1440	1
1352	1429	1441	1
1353	1429	1442	1
1354	1443	1446	2
1355	1443	1444	1
1356	1444	1447	1
1357	1444	1445	1
1358	1444	1451	1
1359	1445	1450	1
1360	1447	1448	1
1361	1447	1449	1
1362	1447	1452	1
1363	1448	1453	1
1364	1448	1454	1
1365	1449	1455	1
1366	1449	1456	1
1367	1449	1457	1
1368	1458	1461	2
1369	1458	1459	1
1370	1459	1462	1
1371	1459	1460	1
1372	1459	1466	1
1373	1460	1465	1
1374	1462	1463	1
1375	1462	1464	1
1376	1462	1467	1
1377	1463	1468	1
1378	1463	1469	1
1379	1463	1470	1
1380	1464	1471	1
1381	1464	1472	1
1382	1464	1473	1
1383	1474	1477	2
1384	1474	1475	1
1385	1475	1478	1
1386	1475	1476	1
1387	1475	1481	1
1388	1476	1480	1
1389	1478	1479	1
1390	1478	1482	1
1391	1478	1483	1
1392	1479	1484	1
1393	1485	1488	2
1394	1485	1486	1
1395	1486	1489	1
1396	1486	1487	1
1397	1486	1494	1
1398	1487	1493	1
1399	1489	1490	1
1400	1489	1495	1
1401	1489	1496	1
1402	1490	1491	2
1403	1490	1492	1
1404	1492	1497	1
1405	1492	1498	1
1406	1499	1502	2
1407	1499	1500	1
1408	1500	1501	1
1409	1500	1504	1
1410	1500	1505	1
1411	1501	1503	1
1412	1506	1509	2
1413	1506	1507	1
1414	1507	1510	1
1415	1507	1508	1
1416	1507	1515	1
1417	1508	1514	1
1418	1510	1511	1
1419	1510	1516	1
1420	1510	1517	1
1421	1511	1512	2
1422	1511	1513	1
1423	1513	1518	1
1424	1513	1519	1
1425	1520	1523	2
1426	1520	1521	1
1427	1521	1522	1
1428	1521	1525	1
1429	1521	1526	1
1430	1522	1524	1
1431	1527	1530	2
1432	1527	1528	1
1433	1528	1531	1
1434	1528	1529	1
1435	1528	1536	1
1436	1529	1535	1
1437	1531	1532	1
1438	1531	1537	1
1439	1531	1538	1
1440	1532	1533	1
1441	1532	1539	1
1442	1532	1540	1
1443	1533	1534	1
1444	1534	1541	1
1445	1534	1542	1
1446	1534	1543	1
1447	1544	1547	2
1448	1544	1545	1
1449	1545	1548	1
1450	1545	1546	1
1451	1545	1553	1
1452	1546	1552	1
1453	1548	1549	1
1454	1548	1554	1
1455	1548	1555	1
1456	1549	1550	2
1457	1549	1551	1
1458	1551	1556	1
1459	1551	1557	1
1460	1558	1561	2
1461	1558	1559	1
1462	1559	1562	1
1463	1559	1560	1
1464	1559	1564	1
1465	1560	1563	1
1466	1562	1565	1
1467	1562	1566	1
1468	1562	1567	1
1469	1568	1571	2
1470	1568	1569	1
1471	1569	1572	1
1472	1569	1570	1
1473	1569	1583	1
1474	1570	1582	1
1475	1572	1573	1
1476	1572	1584	1
1477	1572	1585	1
1478	1573	1574	2
1479	1573	1575	1
1480	1574	1581	1
1481	1574	1586	1
1482	1575	1576	2
1483	1575	1577	1
1484	1576	1578	1
1485	1576	1581	1
1486	1577	1579	2
1487	1577	1588	1
1488	1578	1580	2
1489	1578	1589	1
1490	1579	1580	1
1491	1579	1590	1
1492	1580	1591	1
1493	1581	1587	1
1494	1592	1595	2
1495	1592	1593	1
1496	1593	1596	1
1497	1593	1594	1
1498	1593	1600	1
1499	1594	1599	1
1500	1596	1597	1
1501	1596	1598	1
1502	1596	1601	1
1503	1597	1602	1
1504	1597	1603	1
1505	1597	1604	1
1506	1598	1605	1
1507	1598	1606	1
1508	1598	1607	1
1509	1608	1611	2
1510	1608	1609	1
1511	1609	1612	1
1512	1609	1610	1
1513	1609	1614	1
1514	1610	1613	1
1515	1612	1615	1
1516	1612	1616	1
1517	1612	1617	1
1518	1618	1621	2
1519	1618	1619	1
1520	1619	1622	1
1521	1619	1620	1
1522	1619	1633	1
1523	1620	1632	1
1524	1622	1623	1
1525	1622	1634	1
1526	1622	1635	1
1527	1623	1624	2
1528	1623	1625	1
1529	1624	1631	1
1530	1624	1636	1
1531	1625	1626	2
1532	1625	1627	1
1533	1626	1628	1
1534	1626	1631	1
1535	1627	1629	2
1536	1627	1638	1
1537	1628	1630	2
1538	1628	1639	1
1539	1629	1630	1
1540	1629	1640	1
1541	1630	1641	1
1542	1631	1637	1
1543	1642	1645	2
1544	1642	1643	1
1545	1643	1646	1
1546	1643	1644	1
1547	1643	1654	1
1548	1644	1653	1
1549	1646	1647	1
1550	1646	1655	1
1551	1646	1656	1
1552	1647	1648	1
1553	1647	1657	1
1554	1647	1658	1
1555	1648	1650	1
1556	1648	1659	1
1557	1648	1660	1
1558	1649	1650	1
1559	1649	1651	1
1560	1649	1652	2
1561	1650	1661	1
1562	1651	1662	1
1563	1651	1663	1
1564	1652	1664	1
1565	1652	1665	1
1566	1666	1669	2
1567	1666	1667	1
1568	1667	1670	1
1569	1667	1668	1
1570	1667	1675	1
1571	1668	1674	1
1572	1670	1671	1
1573	1670	1676	1
1574	1670	1677	1
1575	1671	1672	2
1576	1671	1673	1
1577	1673	1678	1
1578	1673	1679	1
1579	1680	1683	2
1580	1680	1681	1
1581	1681	1684	1
1582	1681	1682	1
1583	1681	1692	1
1584	1682	1691	1
1585	1684	1685	1
1586	1684	1693	1
1587	1684	1694	1
1588	1685	1686	1
1589	1685	1695	1
1590	1685	1696	1
1591	1686	1688	1
1592	1686	1697	1
1593	1686	1698	1
1594	1687	1688	1
1595	1687	1689	1
1596	1687	1690	2
1597	1688	1699	1
1598	1689	1700	1
1599	1689	1701	1
1600	1690	1702	1
1601	1690	1703	1
1602	1704	1707	2
1603	1704	1705	1
1604	1705	1708	1
1605	1705	1706	1
1606	1705	1711	1
1607	1706	1710	1
1608	1708	1709	1
1609	1708	1712	1
1610	1708	1713	1
1611	1714	1717	2
1612	1714	1715	1
1613	1715	1718	1
1614	1715	1716	1
1615	1715	1724	1
1616	1716	1723	1
1617	1718	1719	1
1618	1718	1725	1
1619	1718	1726	1
1620	1719	1720	1
1621	1719	1727	1
1622	1719	1728	1
1623	1720	1721	1
1624	1720	1729	1
1625	1720	1730	1
1626	1721	1722	1
1627	1721	1731	1
1628	1721	1732	1
1629	1722	1733	1
1630	1722	1734	1
1631	1722	1735	1
1632	1736	1739	2
1633	1736	1737	1
1634	1737	1738	1
1635	1737	1741	1
1636	1737	1742	1
1637	1738	1740	1
1638	1743	1746	2
1639	1743	1744	1
1640	1744	1747	1
1641	1744	1745	1
1642	1744	1751	1
1643	1745	1750	1
1644	1747	1748	1
1645	1747	1749	1
1646	1747	1752	1
1647	1748	1754	1
1648	1748	1755	1
1649	1748	1756	1
1650	1749	1753	1
1651	1757	1760	2
1652	1757	1758	1
1653	1758	1761	1
1654	1758	1759	1
1655	1758	1766	1
1656	1759	1765	1
1657	1761	1762	1
1658	1761	1767	1
1659	1761	1768	1
1660	1762	1763	2
1661	1762	1764	1
1662	1769	1772	2
1663	1769	1770	1
1664	1770	1773	1
1665	1770	1771	1
1666	1770	1777	1
1667	1771	1776	1
1668	1773	1774	1
1669	1773	1775	1
1670	1773	1778	1
1671	1774	1779	1
1672	1774	1780	1
1673	1774	1781	1
1674	1775	1782	1
1675	1775	1783	1
1676	1775	1784	1
1677	1785	1788	2
1678	1785	1786	1
1679	1786	1789	1
1680	1786	1787	1
1681	1786	1795	1
1682	1787	1794	1
1683	1789	1790	1
1684	1789	1796	1
1685	1789	1797	1
1686	1790	1791	1
1687	1790	1798	1
1688	1790	1799	1
1689	1791	1792	2
1690	1791	1793	1
1691	1793	1800	1
1692	1793	1801	1
1693	1802	1805	2
1694	1802	1803	1
1695	1803	1806	1
1696	1803	1804	1
1697	1803	1808	1
1698	1804	1807	1
1699	1806	1809	1
1700	1806	1810	1
1701	1806	1811	1
1702	1812	1815	2
1703	1812	1813	1
1704	1813	1816	1
1705	1813	1814	1
1706	1813	1827	1
1707	1814	1826	1
1708	1816	1817	1
1709	1816	1828	1
1710	1816	1829	1
1711	1817	1818	2
1712	1817	1819	1
1713	1818	1825	1
1714	1818	1830	1
1715	1819	1820	2
1716	1819	1821	1
1717	1820	1822	1
1718	1820	1825	1
1719	1821	1823	2
1720	1821	1832	1
1721	1822	1824	2
1722	1822	1833	1
1723	1823	1824	1
1724	1823	1834	1
1725	1824	1835	1
1726	1825	1831	1
1727	1836	1839	2
1728	1836	1837	1
1729	1837	1840	1
1730	1837	1838	1
1731	1837	1844	1
1732	1838	1843	1
1733	1840	1841	1
1734	1840	1842	1
1735	1840	1845	1
1736	1841	1846	1
1737	1841	1847	1
1738	1842	1848	1
1739	1842	1849	1
1740	1842	1850	1
1741	1851	1854	2
1742	1851	1852	1
1743	1852	1855	1
1744	1852	1853	1
1745	1852	1863	1
1746	1853	1862	1
1747	1855	1856	1
1748	1855	1864	1
1749	1855	1865	1
1750	1856	1857	1
1751	1856	1866	1
1752	1856	1867	1
1753	1857	1859	1
1754	1857	1868	1
1755	1857	1869	1
1756	1858	1859	1
1757	1858	1860	1
1758	1858	1861	2
1759	1859	1870	1
1760	1860	1871	1
1761	1860	1872	1
1762	1861	1873	1
1763	1861	1874	1
1764	1875	1878	2
1765	1875	1876	1
1766	1876	1877	1
1767	1876	1880	1
1768	1876	1881	1
1769	1877	1879	1
1770	1882	1885	2
1771	1882	1883	1
1772	1883	1886	1
1773	1883	1884	1
1774	1883	1889	1
1775	1884	1888	1
1776	1886	1887	1
1777	1886	1890	1
1778	1886	1891	1
1779	1892	1895	2
1780	1892	1893	1
1781	1893	1896	1
1782	1893	1894	1
1783	1893	1904	1
1784	1894	1903	1
1785	1896	1897	1
1786	1896	1905	1
1787	1896	1906	1
1788	1897	1898	1
1789	1897	1907	1
1790	1897	1908	1
1791	1898	1900	1
1792	1898	1909	1
1793	1898	1910	1
1794	1899	1900	1
1795	1899	1901	1
1796	1899	1902	2
1797	1900	1911	1
1798	1901	1912	1
1799	1901	1913	1
1800	1902	1914	1
1801	1902	1915	1
1802	1916	1917	1
1803	1917	1919	1
1804	1917	1918	1
1805	1917	1924	1
1806	1918	1923	1
1807	1919	1920	1
1808	1919	1925	1
1809	1919	1926	1
1810	1920	1921	1
1811	1920	1922	1
1812	1920	1927	1
1813	1921	1928	1
1814	1921	1929	1
1815	1921	1930	1
1816	1922	1931	1
1817	1922	1932	1
1818	1922	1933	1
1819	1	25	1
1820	23	41	1
1821	39	61	1
1822	59	68	1
1823	66	92	1
1824	90	102	1
1825	100	117	1
1826	115	136	1
1827	134	146	1
1828	144	156	1
1829	154	166	1
1830	164	183	1
1831	181	205	1
1832	203	227	1
1833	242	246	1
1834	244	253	1
1835	251	272	1
1836	270	284	1
1837	282	298	1
1838	296	319	1
1839	317	343	1
1840	341	350	1
1841	348	371	1
1842	369	382	1
1843	380	401	1
1844	399	408	1
1845	406	422	1
1846	420	446	1
1847	444	462	1
1848	460	472	1
1849	470	482	1
1850	480	492	1
1851	490	514	1
1852	512	534	1
1853	532	549	1
1854	547	560	1
1855	558	574	1
1856	572	594	1
1857	592	608	1
1858	606	622	1
1859	620	639	1
1860	637	649	1
1861	647	663	1
1862	661	677	1
1863	675	701	1
1864	699	715	1
1865	713	729	1
1866	727	741	1
1867	739	748	1
1868	746	759	1
1869	757	773	1
1870	771	785	1
1871	783	806	1
1872	804	813	1
1873	811	828	1
1874	826	847	1
1875	845	864	1
1876	862	879	1
1877	877	893	1
1878	891	904	1
1879	902	928	1
1880	926	952	1
1881	950	976	1
1882	974	986	1
1883	984	1000	1
1884	998	1012	1
1885	1010	1019	1
1886	1017	1043	1
1887	1041	1057	1
1888	1055	1071	1
1889	1069	1078	1
1890	1076	1089	1
1891	1087	1113	1
1892	1111	1127	1
1893	1125	1146	1
1894	1144	1156	1
1895	1154	1170	1
1896	1168	1185	1
1897	1183	1199	1
1898	1197	1209	1
1899	1207	1220	1
1900	1218	1230	1
1901	1228	1249	1
1902	1247	1268	1
1903	1266	1279	1
1904	1277	1290	1
1905	1288	1302	1
1906	1300	1317	1
1907	1315	1331	1
1908	1329	1341	1
1909	1339	1351	1
1910	1349	1367	1
1911	1365	1381	1
1912	1379	1391	1
1913	1389	1401	1
1914	1399	1423	1
1915	1421	1445	1
1916	1443	1460	1
1917	1458	1476	1
1918	1474	1487	1
1919	1485	1501	1
1920	1499	1508	1
1921	1506	1522	1
1922	1520	1529	1
1923	1527	1546	1
1924	1544	1560	1
1925	1558	1570	1
1926	1568	1594	1
1927	1592	1610	1
1928	1608	1620	1
1929	1618	1644	1
1930	1642	1668	1
1931	1666	1682	1
1932	1680	1706	1
1933	1704	1716	1
1934	1714	1738	1
1935	1736	1745	1
1936	1743	1759	1
1937	1757	1771	1
1938	1769	1787	1
1939	1785	1804	1
1940	1802	1814	1
1941	1812	1838	1
1942	1836	1853	1
1943	1851	1877	1
1944	1875	1884	1
1945	1882	1894	1
1946	1892	1918	1
@<TRIPOS>SUBSTRUCTURE
1	fragment1	1
2	fragment2	228
3	fragment3	230
4	fragment4	232
5	fragment5	233
6	fragment6	235
7	fragment7	238
8	fragment8	241
