@<TRIPOS>MOLECULE
/home/conradli/SAC-for-H-Bond-Learning/data/1FME/1fme_pnon.pdb
 321 325 0 0 0
SMALL
GASTEIGER

@<TRIPOS>ATOM
      1  N        -14.1960    7.7030    4.2960 N.3     1  GLU1       -0.2380
      2  H        -14.7230    7.4040    5.1410 H       1  GLU1        0.1418
      3  CA       -13.8290    6.5040    3.4880 C.3     1  GLU1        0.1453
      4  CB       -15.1540    5.9860    2.9250 C.3     1  GLU1        0.0382
      5  CG       -15.1530    4.4560    2.9390 C.3     1  GLU1        0.1160
      6  CD       -15.6720    3.9550    4.2870 C.2     1  GLU1        0.3649
      7  OE1      -15.2760    4.5140    5.2970 O.co2   1  GLU1       -0.2457
      8  OE2      -16.4560    3.0200    4.2880 O.co2   1  GLU1       -0.2457
      9  C        -12.8820    6.9040    2.3520 C.2     1  GLU1        0.2383
     10  O        -13.3130    7.2590    1.2710 O.2     1  GLU1       -0.2736
     11  N        -11.5960    6.8460    2.5930 N.am    2  GLN2       -0.2972
     12  H        -11.2780    6.5560    3.4740 H       2  GLN2        0.1499
     13  CA       -10.6130    7.2210    1.5310 C.3     2  GLN2        0.1491
     14  CB        -9.2700    7.3600    2.2550 C.3     2  GLN2        0.0385
     15  CG        -8.4190    8.4450    1.5750 C.3     2  GLN2        0.0870
     16  CD        -8.1340    9.5800    2.5630 C.2     2  GLN2        0.2194
     17  OE1       -6.9930    9.9330    2.7890 O.2     2  GLN2       -0.2753
     18  NE2       -9.1310   10.1700    3.1640 N.am    2  GLN2       -0.3288
     19 HE21      -10.0510    9.8860    2.9820 H       2  GLN2        0.1449
     20 HE22       -8.9600   10.8980    3.7970 H       2  GLN2        0.1449
     21  C        -10.5380    6.1200    0.4690 C.2     2  GLN2        0.2407
     22  O        -11.2810    5.1590    0.5070 O.2     2  GLN2       -0.2733
     23  N         -9.6460    6.2580   -0.4810 N.am    3  TYR3       -0.2967
     24  H         -9.0630    7.0460   -0.4940 H       3  TYR3        0.1499
     25  CA        -9.5150    5.2260   -1.5590 C.3     3  TYR3        0.1530
     26  CB        -8.3100    5.6470   -2.4050 C.3     3  TYR3        0.0553
     27  CG        -7.1090    5.9030   -1.5290 C.ar    3  TYR3       -0.0198
     28  CD1       -6.4710    4.8470   -0.8690 C.ar    3  TYR3       -0.0011
     29  CD2       -6.6430    7.2090   -1.3780 C.ar    3  TYR3       -0.0011
     30  CE1       -5.3640    5.1060   -0.0610 C.ar    3  TYR3        0.0363
     31  CE2       -5.5380    7.4670   -0.5700 C.ar    3  TYR3        0.0363
     32  CZ        -4.8960    6.4160    0.0900 C.ar    3  TYR3        0.1337
     33  OH        -3.8030    6.6710    0.8890 O.3     3  TYR3       -0.5055
     34  HH        -4.1020    7.1820    1.6450 H       3  TYR3        0.2922
     35  C         -9.3050    3.8290   -0.9710 C.2     3  TYR3        0.2410
     36  O         -8.7790    3.6710    0.1150 O.2     3  TYR3       -0.2733
     37  N         -9.7190    2.8160   -1.6900 N.am    4  THR4       -0.2951
     38  H        -10.1410    2.9790   -2.5590 H       4  THR4        0.1499
     39  CA        -9.5570    1.4190   -1.1960 C.3     4  THR4        0.1757
     40  CB       -10.9460    0.7870   -1.3360 C.3     4  THR4        0.1373
     41  OG1      -11.4860    1.1250   -2.6060 O.3     4  THR4       -0.3823
     42  HG1      -11.5370    0.3220   -3.1300 H       4  THR4        0.2104
     43  CG2      -11.8710    1.3090   -0.2320 C.3     4  THR4        0.0340
     44  C         -8.5350    0.6730   -2.0590 C.2     4  THR4        0.2431
     45  O         -8.7430   -0.4610   -2.4450 O.2     4  THR4       -0.2732
     46  N         -7.4310    1.3090   -2.3650 N.am    5  ALA5       -0.2969
     47  H         -7.2970    2.2220   -2.0440 H       5  ALA5        0.1499
     48  CA        -6.3760    0.6620   -3.2100 C.3     5  ALA5        0.1486
     49  CB        -5.1500    1.5630   -3.0800 C.3     5  ALA5        0.0312
     50  C         -6.0180   -0.7240   -2.6830 C.2     5  ALA5        0.2406
     51  O         -5.7270   -0.8790   -1.5250 O.2     5  ALA5       -0.2733
     52  N         -6.0020   -1.7150   -3.5250 N.am    6  LYS6       -0.2970
     53  H         -6.2150   -1.5590   -4.4670 H       6  LYS6        0.1499
     54  CA        -5.6210   -3.0820   -3.0570 C.3     6  LYS6        0.1486
     55  CB        -6.7930   -4.0040   -3.3950 C.3     6  LYS6        0.0289
     56  CG        -7.2020   -3.8330   -4.8610 C.3     6  LYS6        0.0000
     57  CD        -7.5970   -5.1930   -5.4600 C.3     6  LYS6       -0.0238
     58  CE        -9.0780   -5.1810   -5.8490 C.3     6  LYS6       -0.0862
     59  NZ        -9.0920   -4.8340   -7.2970 N.4     6  LYS6        0.3804
     60  HZ1      -10.0750   -4.7620   -7.6270 H       6  LYS6       -0.0894
     61  HZ2       -8.5970   -5.5740   -7.8350 H       6  LYS6       -0.0894
     62  HZ3       -8.6130   -3.9220   -7.4400 H       6  LYS6       -0.0894
     63  C         -4.3480   -3.5270   -3.7700 C.2     6  LYS6        0.2406
     64  O         -4.1490   -3.2520   -4.9390 O.2     6  LYS6       -0.2733
     65  N         -3.4790   -4.1970   -3.0640 N.am    7  TYR7       -0.2967
     66  H         -3.6660   -4.3920   -2.1230 H       7  TYR7        0.1499
     67  CA        -2.1980   -4.6520   -3.6790 C.3     7  TYR7        0.1530
     68  CB        -1.1170   -3.8580   -2.9480 C.3     7  TYR7        0.0553
     69  CG        -1.1180   -2.4550   -3.4610 C.ar    7  TYR7       -0.0198
     70  CD1       -2.1520   -1.5890   -3.1060 C.ar    7  TYR7       -0.0011
     71  CD2       -0.0840   -2.0220   -4.2860 C.ar    7  TYR7       -0.0011
     72  CE1       -2.1550   -0.2780   -3.5780 C.ar    7  TYR7        0.0363
     73  CE2       -0.0760   -0.7130   -4.7620 C.ar    7  TYR7        0.0363
     74  CZ        -1.1130    0.1670   -4.4090 C.ar    7  TYR7        0.1337
     75  OH        -1.1070    1.4640   -4.8790 O.3     7  TYR7       -0.5055
     76  HH        -2.0070    1.6930   -5.1250 H       7  TYR7        0.2922
     77  C         -2.0150   -6.1580   -3.4750 C.2     7  TYR7        0.2410
     78  O         -2.0840   -6.9310   -4.4120 O.2     7  TYR7       -0.2733
     79  N         -1.7940   -6.5780   -2.2560 N.am    8  LYS8       -0.2970
     80  H         -1.7510   -5.9330   -1.5200 H       8  LYS8        0.1499
     81  CA        -1.6170   -8.0340   -1.9790 C.3     8  LYS8        0.1486
     82  CB        -0.2400   -8.1510   -1.3230 C.3     8  LYS8        0.0289
     83  CG         0.8080   -8.4720   -2.3910 C.3     8  LYS8        0.0000
     84  CD         0.6520   -9.9250   -2.8420 C.3     8  LYS8       -0.0238
     85  CE         1.2890  -10.8540   -1.8060 C.3     8  LYS8       -0.0862
     86  NZ         0.6710  -12.1870   -2.0520 N.4     8  LYS8        0.3804
     87  HZ1       -0.3610  -12.1170   -1.9460 H       8  LYS8       -0.0894
     88  HZ2        1.0450  -12.8740   -1.3650 H       8  LYS8       -0.0894
     89  HZ3        0.8980  -12.5020   -3.0160 H       8  LYS8       -0.0894
     90  C         -2.7150   -8.5100   -1.0230 C.2     8  LYS8        0.2407
     91  O         -2.4430   -8.9930    0.0610 O.2     8  LYS8       -0.2733
     92  N         -3.9540   -8.3630   -1.4170 N.am    9  GLY9       -0.2953
     93  H         -4.1420   -7.9630   -2.2920 H       9  GLY9        0.1499
     94  CA        -5.0800   -8.7890   -0.5370 C.3     9  GLY9        0.1757
     95  C         -5.1750   -7.8320    0.6510 C.2     9  GLY9        0.2428
     96  O         -5.5900   -8.2080    1.7310 O.2     9  GLY9       -0.2732
     97  N         -4.7850   -6.5950    0.4580 N.am   10  ARG10      -0.2969
     98  H         -4.4520   -6.3210   -0.4200 H      10  ARG10       0.1499
     99  CA        -4.8420   -5.6020    1.5710 C.3    10  ARG10       0.1487
    100  CB        -3.4240   -5.5630    2.1440 C.3    10  ARG10       0.0325
    101  CG        -3.0280   -6.9510    2.6540 C.3    10  ARG10       0.0450
    102  CD        -1.6920   -6.8570    3.3940 C.3    10  ARG10       0.1739
    103  NE        -1.2250   -8.2640    3.5300 N.pl3  10  ARG10      -0.2651
    104  HE        -1.1670   -8.8380    2.7390 H      10  ARG10       0.2586
    105  CZ        -0.8910   -8.7310    4.7020 C.cat  10  ARG10       0.3417
    106  NH1        0.1740   -8.2800    5.3070 N.pl3  10  ARG10      -0.2918
    107 HH11        0.7350   -7.5760    4.8730 H      10  ARG10       0.2545
    108 HH12        0.4280   -8.6400    6.2050 H      10  ARG10       0.2545
    109  NH2       -1.6220   -9.6530    5.2680 N.pl3  10  ARG10      -0.2918
    110 HH21       -2.4370  -10.0000    4.8040 H      10  ARG10       0.2545
    111 HH22       -1.3660  -10.0120    6.1660 H      10  ARG10       0.2545
    112  C         -5.2150   -4.2230    1.0280 C.2    10  ARG10       0.2407
    113  O         -4.4280   -3.5890    0.3480 O.2    10  ARG10      -0.2733
    114  N         -6.3960   -3.7440    1.3300 N.am   11  THR11      -0.2951
    115  H         -7.0110   -4.2660    1.8870 H      11  THR11       0.1499
    116  CA        -6.7930   -2.3940    0.8330 C.3    11  THR11       0.1757
    117  CB        -8.2760   -2.2400    1.1720 C.3    11  THR11       0.1373
    118  OG1       -9.0060   -3.3200    0.6060 O.3    11  THR11      -0.3823
    119  HG1       -9.7060   -3.5590    1.2170 H      11  THR11       0.2104
    120  CG2       -8.7910   -0.9140    0.6010 C.3    11  THR11       0.0340
    121  C         -5.9680   -1.3260    1.5610 C.2    11  THR11       0.2431
    122  O         -5.6090   -1.4950    2.7120 O.2    11  THR11      -0.2732
    123  N         -5.6650   -0.2340    0.9080 N.am   12  PHE12      -0.2967
    124  H         -5.9650   -0.1200   -0.0180 H      12  PHE12       0.1499
    125  CA        -4.8640    0.8390    1.5670 C.3    12  PHE12       0.1530
    126  CB        -3.6880    1.1100    0.6200 C.3    12  PHE12       0.0553
    127  CG        -2.7030   -0.0150    0.7630 C.ar   12  PHE12      -0.0200
    128  CD1       -2.9300   -1.1980    0.0690 C.ar   12  PHE12      -0.0042
    129  CD2       -1.5720    0.1210    1.5790 C.ar   12  PHE12      -0.0042
    130  CE1       -2.0310   -2.2630    0.1880 C.ar   12  PHE12      -0.0003
    131  CE2       -0.6660   -0.9420    1.6970 C.ar   12  PHE12      -0.0003
    132  CZ        -0.8990   -2.1360    1.0030 C.ar   12  PHE12      -0.0000
    133  C         -5.7200    2.0890    1.7650 C.2    12  PHE12       0.2410
    134  O         -6.2760    2.6300    0.8290 O.2    12  PHE12      -0.2733
    135  N         -5.8320    2.5400    2.9860 N.am   13  ARG13      -0.2970
    136  H         -5.3750    2.0770    3.7190 H      13  ARG13       0.1499
    137  CA        -6.6470    3.7550    3.2770 C.3    13  ARG13       0.1487
    138  CB        -7.6970    3.2940    4.2890 C.3    13  ARG13       0.0325
    139  CG        -9.0020    4.0580    4.0570 C.3    13  ARG13       0.0450
    140  CD        -9.8890    3.2710    3.0900 C.3    13  ARG13       0.1739
    141  NE       -10.4680    2.1710    3.9100 N.pl3  13  ARG13      -0.2651
    142  HE       -10.0330    1.2930    3.9290 H      13  ARG13       0.2586
    143  CZ       -11.5530    2.3760    4.6050 C.cat  13  ARG13       0.3417
    144  NH1      -12.7230    2.2350    4.0450 N.pl3  13  ARG13      -0.2918
    145 HH11      -12.7880    1.9700    3.0830 H      13  ARG13       0.2545
    146 HH12      -13.5550    2.3930    4.5770 H      13  ARG13       0.2545
    147  NH2      -11.4680    2.7220    5.8620 N.pl3  13  ARG13      -0.2918
    148 HH21      -10.5710    2.8290    6.2900 H      13  ARG13       0.2545
    149 HH22      -12.2990    2.8790    6.3940 H      13  ARG13       0.2545
    150  C         -5.7500    4.8320    3.8850 C.2    13  ARG13       0.2406
    151  O         -6.1640    5.5930    4.7390 O.2    13  ARG13      -0.2733
    152  N         -4.5190    4.8890    3.4490 N.am   14  ASN14      -0.2966
    153  H         -4.2170    4.2580    2.7600 H      14  ASN14       0.1499
    154  CA        -3.5690    5.9050    3.9920 C.3    14  ASN14       0.1577
    155  CB        -3.1880    5.3830    5.3780 C.3    14  ASN14       0.1137
    156  CG        -3.0250    6.5590    6.3410 C.2    14  ASN14       0.2216
    157  OD1       -3.9610    6.9460    7.0110 O.2    14  ASN14      -0.2753
    158  ND2       -1.8660    7.1490    6.4380 N.am   14  ASN14      -0.3287
    159 HD21       -1.1110    6.8360    5.8980 H      14  ASN14       0.1449
    160 HD22       -1.7500    7.9030    7.0520 H      14  ASN14       0.1449
    161  C         -2.3340    5.9980    3.0940 C.2    14  ASN14       0.2411
    162  O         -1.7040    5.0030    2.7850 O.2    14  ASN14      -0.2733
    163  N         -1.9910    7.1850    2.6670 N.am   15  GLU15      -0.2970
    164  H         -2.5220    7.9680    2.9280 H      15  GLU15       0.1499
    165  CA        -0.8000    7.3540    1.7780 C.3    15  GLU15       0.1491
    166  CB        -0.7210    8.8550    1.4890 C.3    15  GLU15       0.0408
    167  CG        -0.2690    9.0770    0.0450 C.3    15  GLU15       0.1163
    168  CD         0.5230   10.3820   -0.0480 C.2    15  GLU15       0.3649
    169  OE1        1.3620   10.6030    0.8090 O.co2  15  GLU15      -0.2457
    170  OE2        0.2790   11.1350   -0.9750 O.co2  15  GLU15      -0.2457
    171  C          0.4690    6.8730    2.4900 C.2    15  GLU15       0.2406
    172  O          1.3710    6.3400    1.8720 O.2    15  GLU15      -0.2733
    173  N          0.5450    7.0600    3.7840 N.am   16  LYS16      -0.2970
    174  H         -0.1920    7.4950    4.2550 H      16  LYS16       0.1499
    175  CA         1.7530    6.6190    4.5450 C.3    16  LYS16       0.1486
    176  CB         1.4510    6.9400    6.0090 C.3    16  LYS16       0.0289
    177  CG         2.7370    6.8300    6.8320 C.3    16  LYS16       0.0000
    178  CD         2.3980    6.3930    8.2590 C.3    16  LYS16      -0.0238
    179  CE         3.4840    5.4470    8.7760 C.3    16  LYS16      -0.0862
    180  NZ         2.7540    4.4330    9.5860 N.4    16  LYS16       0.3804
    181  HZ1        3.4170    3.6990    9.9060 H      16  LYS16      -0.0894
    182  HZ2        2.0080    3.9980    9.0050 H      16  LYS16      -0.0894
    183  HZ3        2.3250    4.8920   10.4140 H      16  LYS16      -0.0894
    184  C          1.9800    5.1190    4.3660 C.2    16  LYS16       0.2406
    185  O          3.0940    4.6560    4.2120 O.2    16  LYS16      -0.2733
    186  N          0.9200    4.3700    4.3860 N.am   17  GLU17      -0.2970
    187  H          0.0470    4.7890    4.5110 H      17  GLU17       0.1499
    188  CA         1.0300    2.8870    4.2180 C.3    17  GLU17       0.1491
    189  CB        -0.3720    2.3470    4.5100 C.3    17  GLU17       0.0408
    190  CG        -0.6650    2.4650    6.0050 C.3    17  GLU17       0.1163
    191  CD         0.2660    1.5320    6.7840 C.2    17  GLU17       0.3649
    192  OE1        0.4830    0.4230    6.3240 O.co2  17  GLU17      -0.2457
    193  OE2        0.7460    1.9440    7.8270 O.co2  17  GLU17      -0.2457
    194  C          1.4350    2.5500    2.7820 C.2    17  GLU17       0.2406
    195  O          2.4320    1.8970    2.5400 O.2    17  GLU17      -0.2733
    196  N          0.6560    2.9930    1.8300 N.am   18  LEU18      -0.2970
    197  H         -0.1420    3.5110    2.0640 H      18  LEU18       0.1499
    198  CA         0.9630    2.7120    0.3910 C.3    18  LEU18       0.1486
    199  CB        -0.0990    3.4960   -0.3950 C.3    18  LEU18       0.0290
    200  CG        -0.4160    2.7970   -1.7230 C.3    18  LEU18       0.0021
    201  CD1       -0.9500    1.3760   -1.4660 C.3    18  LEU18       0.0001
    202  CD2       -1.4760    3.6090   -2.4750 C.3    18  LEU18       0.0001
    203  C          2.3750    3.1870    0.0380 C.2    18  LEU18       0.2406
    204  O          3.1180    2.4930   -0.6320 O.2    18  LEU18      -0.2733
    205  N          2.7560    4.3510    0.4930 N.am   19  ARG19      -0.2970
    206  H          2.1420    4.8860    1.0390 H      19  ARG19       0.1499
    207  CA         4.1290    4.8570    0.1900 C.3    19  ARG19       0.1487
    208  CB         4.2060    6.2390    0.8410 C.3    19  ARG19       0.0325
    209  CG         3.3980    7.2430    0.0140 C.3    19  ARG19       0.0450
    210  CD         4.3320    7.9900   -0.9400 C.3    19  ARG19       0.1739
    211  NE         3.4920    8.3120   -2.1260 N.pl3  19  ARG19      -0.2651
    212  HE         2.6270    8.7530   -2.0070 H      19  ARG19       0.2586
    213  CZ         3.9110    8.0090   -3.3240 C.cat  19  ARG19       0.3417
    214  NH1        4.4620    6.8460   -3.5490 N.pl3  19  ARG19      -0.2918
    215 HH11        4.5620    6.1880   -2.8020 H      19  ARG19       0.2545
    216 HH12        4.7820    6.6140   -4.4670 H      19  ARG19       0.2545
    217  NH2        3.7810    8.8680   -4.2970 N.pl3  19  ARG19      -0.2918
    218 HH21        3.3610    9.7590   -4.1250 H      19  ARG19       0.2545
    219 HH22        4.1000    8.6360   -5.2160 H      19  ARG19       0.2545
    220  C          5.1830    3.9200    0.7920 C.2    19  ARG19       0.2406
    221  O          6.3270    3.9190    0.3790 O.2    19  ARG19      -0.2733
    222  N          4.8070    3.1230    1.7660 N.am   20  ASP20      -0.2966
    223  H          3.8820    3.1420    2.0860 H      20  ASP20       0.1499
    224  CA         5.7850    2.1880    2.3950 C.3    20  ASP20       0.1599
    225  CB         5.4660    2.2300    3.8900 C.3    20  ASP20       0.1429
    226  CG         6.6230    1.6130    4.6780 C.2    20  ASP20       0.3671
    227  OD1        7.7610    1.9030    4.3470 O.co2  20  ASP20      -0.2456
    228  OD2        6.3510    0.8620    5.6000 O.co2  20  ASP20      -0.2456
    229  C          5.5990    0.7690    1.8460 C.2    20  ASP20       0.2412
    230  O          6.5350   -0.0060    1.7910 O.2    20  ASP20      -0.2733
    231  N          4.3990    0.4220    1.4430 N.am   21  PHE21      -0.2967
    232  H          3.6590    1.0630    1.4980 H      21  PHE21       0.1499
    233  CA         4.1590   -0.9510    0.8980 C.3    21  PHE21       0.1530
    234  CB         2.6440   -1.0800    0.7250 C.3    21  PHE21       0.0553
    235  CG         2.3640   -2.4550    0.1800 C.ar   21  PHE21      -0.0200
    236  CD1        2.3500   -3.5360    1.0530 C.ar   21  PHE21      -0.0042
    237  CD2        2.1490   -2.6470   -1.1890 C.ar   21  PHE21      -0.0042
    238  CE1        2.1100   -4.8270    0.5670 C.ar   21  PHE21      -0.0003
    239  CE2        1.9100   -3.9350   -1.6810 C.ar   21  PHE21      -0.0003
    240  CZ         1.8870   -5.0270   -0.8010 C.ar   21  PHE21      -0.0000
    241  C          4.8660   -1.1320   -0.4520 C.2    21  PHE21       0.2410
    242  O          5.8660   -1.8150   -0.5520 O.2    21  PHE21      -0.2733
    243  N          4.3320   -0.5360   -1.4950 N.am   22  ILE22      -0.2970
    244  H          3.5210   -0.0080   -1.3770 H      22  ILE22       0.1499
    245  CA         4.9370   -0.6680   -2.8610 C.3    22  ILE22       0.1485
    246  CB         4.2300    0.3910   -3.7140 C.3    22  ILE22       0.0269
    247  CG2        4.8630    0.4340   -5.1070 C.3    22  ILE22       0.0022
    248  CG1        2.7550    0.0110   -3.8630 C.3    22  ILE22       0.0021
    249  CD         1.8870    0.8860   -2.9680 C.3    22  ILE22       0.0001
    250  C          6.4480   -0.4030   -2.8000 C.2    22  ILE22       0.2406
    251  O          7.2250   -0.9800   -3.5370 O.2    22  ILE22      -0.2733
    252  N          6.8510    0.4630   -1.9110 N.am   23  GLU23      -0.2970
    253  H          6.1900    0.9010   -1.3290 H      23  GLU23       0.1499
    254  CA         8.3040    0.7760   -1.7720 C.3    23  GLU23       0.1491
    255  CB         8.3720    1.9580   -0.8020 C.3    23  GLU23       0.0408
    256  CG         9.7920    2.5270   -0.7850 C.3    23  GLU23       0.1163
    257  CD         9.8460    3.7370    0.1480 C.2    23  GLU23       0.3649
    258  OE1        9.5040    3.5800    1.3090 O.co2  23  GLU23      -0.2457
    259  OE2       10.2270    4.8000   -0.3130 O.co2  23  GLU23      -0.2457
    260  C          9.0360   -0.4360   -1.1970 C.2    23  GLU23       0.2406
    261  O         10.1840   -0.6880   -1.5160 O.2    23  GLU23      -0.2733
    262  N          8.3730   -1.1930   -0.3610 N.am   24  LYS24      -0.2970
    263  H          7.4470   -0.9700   -0.1300 H      24  LYS24       0.1499
    264  CA         9.0140   -2.4020    0.2320 C.3    24  LYS24       0.1486
    265  CB         8.3090   -2.6130    1.5730 C.3    24  LYS24       0.0289
    266  CG         9.1980   -2.0960    2.7080 C.3    24  LYS24       0.0000
    267  CD        10.4240   -3.0050    2.8550 C.3    24  LYS24      -0.0238
    268  CE        11.6640   -2.1550    3.1380 C.3    24  LYS24      -0.0862
    269  NZ        11.4920   -1.6770    4.5380 N.4    24  LYS24       0.3804
    270  HZ1       10.6200   -1.1170    4.6090 H      24  LYS24      -0.0894
    271  HZ2       12.3070   -1.0870    4.8040 H      24  LYS24      -0.0894
    272  HZ3       11.4310   -2.4940    5.1780 H      24  LYS24      -0.0894
    273  C          8.7980   -3.6040   -0.6870 C.2    24  LYS24       0.2406
    274  O          9.7400   -4.2410   -1.1170 O.2    24  LYS24      -0.2733
    275  N          7.5610   -3.9140   -0.9970 N.am   25  PHE25      -0.2967
    276  H          6.8220   -3.3890   -0.6410 H      25  PHE25       0.1499
    277  CA         7.2790   -5.0660   -1.8910 C.3    25  PHE25       0.1530
    278  CB         5.8580   -5.5110   -1.5410 C.3    25  PHE25       0.0553
    279  CG         5.5480   -6.8060   -2.2490 C.ar   25  PHE25      -0.0200
    280  CD1        6.3960   -7.9110   -2.0980 C.ar   25  PHE25      -0.0042
    281  CD2        4.4110   -6.9020   -3.0590 C.ar   25  PHE25      -0.0042
    282  CE1        6.1050   -9.1110   -2.7580 C.ar   25  PHE25      -0.0003
    283  CE2        4.1210   -8.1020   -3.7190 C.ar   25  PHE25      -0.0003
    284  CZ         4.9670   -9.2070   -3.5680 C.ar   25  PHE25      -0.0000
    285  C          7.3670   -4.6350   -3.3590 C.2    25  PHE25       0.2410
    286  O          6.4380   -4.8140   -4.1240 O.2    25  PHE25      -0.2733
    287  N          8.4800   -4.0690   -3.7530 N.am   26  LYS26      -0.2970
    288  H          9.2100   -3.9370   -3.1150 H      26  LYS26       0.1499
    289  CA         8.6380   -3.6210   -5.1730 C.3    26  LYS26       0.1486
    290  CB        10.0090   -2.9450   -5.2330 C.3    26  LYS26       0.0289
    291  CG         9.8610   -1.4610   -4.8900 C.3    26  LYS26       0.0000
    292  CD        11.1410   -0.7190   -5.2790 C.3    26  LYS26      -0.0238
    293  CE        11.0030   -0.1720   -6.7010 C.3    26  LYS26      -0.0862
    294  NZ        12.3330    0.4230   -7.0130 N.4    26  LYS26       0.3804
    295  HZ1       13.0430   -0.3320   -7.0880 H      26  LYS26      -0.0894
    296  HZ2       12.6030    1.0830   -6.2550 H      26  LYS26      -0.0894
    297  HZ3       12.2790    0.9360   -7.9160 H      26  LYS26      -0.0894
    298  C          8.5890   -4.8150   -6.1300 C.2    26  LYS26       0.2407
    299  O          8.3100   -4.6670   -7.3040 O.2    26  LYS26      -0.2733
    300  N          8.8600   -5.9900   -5.6350 N.am   27  GLY27      -0.2953
    301  H          9.0800   -6.0760   -4.6880 H      27  GLY27       0.1499
    302  CA         8.8350   -7.2030   -6.5050 C.3    27  GLY27       0.1757
    303  C         10.2640   -7.5730   -6.9040 C.2    27  GLY27       0.2428
    304  O         10.8380   -6.9840   -7.8020 O.2    27  GLY27      -0.2732
    305  N         10.8400   -8.5430   -6.2420 N.am   28  ARG28      -0.2979
    306  H         10.3540   -8.9990   -5.5230 H      28  ARG28       0.1498
    307  CA        12.2350   -8.9610   -6.5750 C.3    28  ARG28       0.1370
    308  CB        13.0920   -8.4260   -5.4270 C.3    28  ARG28       0.0312
    309  CG        13.3950   -6.9450   -5.6600 C.3    28  ARG28       0.0450
    310  CD        13.8310   -6.2980   -4.3430 C.3    28  ARG28       0.1739
    311  NE        14.9300   -5.3640   -4.7140 N.pl3  28  ARG28      -0.2651
    312  HE        15.4100   -5.4820   -5.5610 H      28  ARG28       0.2586
    313  CZ        15.2560   -4.3880   -3.9120 C.cat  28  ARG28       0.3417
    314  NH1       16.1020   -4.5960   -2.9410 N.pl3  28  ARG28      -0.2918
    315 HH11       16.5020   -5.5050   -2.8110 H      28  ARG28       0.2545
    316 HH12       16.3520   -3.8480   -2.3260 H      28  ARG28       0.2545
    317  NH2       14.7350   -3.2030   -4.0790 N.pl3  28  ARG28      -0.2918
    318 HH21       14.0870   -3.0430   -4.8240 H      28  ARG28       0.2545
    319 HH22       14.9840   -2.4560   -3.4640 H      28  ARG28       0.2545
    320  C         12.3270  -10.4870   -6.6490 C.2    28  ARG28       0.2266
    321  O         12.5440  -10.9950   -7.7360 O.2    28  ARG28      -0.2865
@<TRIPOS>BOND
     1   297   294    1
     2    61    59    1
     3   304   303    2
     4   321   320    2
     5    60    59    1
     6    62    59    1
     7   299   298    2
     8    59    58    1
     9   295   294    1
    10   294   293    1
    11   294   296    1
    12   303   302    1
    13   303   305   am
    14   293   292    1
    15   320   307    1
    16   307   305    1
    17   307   308    1
    18   302   300    1
    19   305   306    1
    20   298   300   am
    21   298   289    1
    22    58    57    1
    23   309   308    1
    24   309   310    1
    25   300   301    1
    26   312   311    1
    27    57    56    1
    28   292   291    1
    29   290   289    1
    30   290   291    1
    31   219   217    1
    32   289   287    1
    33    76    75    1
    34   247   246    1
    35    64    63    2
    36    75    74    1
    37    56    55    1
    38   318   317    1
    39    73    74   ar
    40    73    71   ar
    41   311   310    1
    42   311   313    1
    43   216   214    1
    44    53    52    1
    45    78    77    2
    46    74    72   ar
    47   217   218    1
    48   217   213    2
    49    71    69   ar
    50   286   285    2
    51   317   313    2
    52   317   319    1
    53   313   314    1
    54   248   246    1
    55   248   249    1
    56    63    65   am
    57    63    54    1
    58   287   285   am
    59   287   288    1
    60   283   284   ar
    61   283   281   ar
    62   246   245    1
    63    67    77    1
    64    67    65    1
    65    67    68    1
    66    72    70   ar
    67   284   282   ar
    68   214   213    1
    69   214   215    1
    70   251   250    2
    71    52    54    1
    72    52    50   am
    73    77    79   am
    74    69    70   ar
    75    69    68    1
    76    55    54    1
    77   285   277    1
    78   213   211    1
    79    48    49    1
    80    48    50    1
    81    48    46    1
    82    42    41    1
    83    65    66    1
    84   281   279   ar
    85    89    86    1
    86   314   315    1
    87   314   316    1
    88   245   250    1
    89   245   243    1
    90    84    83    1
    91    84    85    1
    92   250   252   am
    93   282   280   ar
    94    50    51    2
    95    41    40    1
    96    38    37    1
    97   202   200    1
    98    45    44    2
    99    26    25    1
   100    26    27    1
   101    83    82    1
   102    46    44   am
   103    46    47    1
   104    93    92    1
   105    79    81    1
   106    79    80    1
   107   279   280   ar
   108   279   278    1
   109   211   212    1
   110   211   210    1
   111    44    39    1
   112    86    87    1
   113    86    85    1
   114    86    88    1
   115    81    82    1
   116    81    90    1
   117   252   254    1
   118   252   253    1
   119   277   278    1
   120   277   275    1
   121   254   260    1
   122   254   255    1
   123   200   201    1
   124   200   199    1
   125    37    39    1
   126    37    35   am
   127   239   237   ar
   128   239   240   ar
   129    25    35    1
   130    25    23    1
   131    27    29   ar
   132    27    28   ar
   133   261   260    2
   134   243   244    1
   135   243   241   am
   136    92    90   am
   137    92    94    1
   138    29    31   ar
   139    40    39    1
   140    40    43    1
   141   260   262   am
   142   237   235   ar
   143   274   273    2
   144    90    91    2
   145   275   273   am
   146   275   276    1
   147   170   168   ar
   148    35    36    2
   149   210   209    1
   150    28    30   ar
   151   255   256    1
   152   240   238   ar
   153   256   257    1
   154   273   264    1
   155   204   203    2
   156    31    32   ar
   157   242   241    2
   158    94    95    1
   159    24    23    1
   160    23    21   am
   161   241   233    1
   162    98    97    1
   163   199   198    1
   164   262   263    1
   165   262   264    1
   166   259   257   ar
   167    30    32   ar
   168   168   167    1
   169   168   169   ar
   170   124   123    1
   171   209   208    1
   172   203   198    1
   173   203   205   am
   174   167   166    1
   175   128   130   ar
   176   128   127   ar
   177    32    33    1
   178   257   258   ar
   179   235   234    1
   180   235   236   ar
   181   130   132   ar
   182   207   205    1
   183   207   220    1
   184   207   208    1
   185   264   265    1
   186   113   112    2
   187   221   220    2
   188   198   196    1
   189    97    95   am
   190    97    99    1
   191    21    22    2
   192    21    13    1
   193   205   206    1
   194   238   236   ar
   195   120   117    1
   196   118   117    1
   197   118   119    1
   198   126   127    1
   199   126   125    1
   200    95    96    2
   201   234   233    1
   202   127   129   ar
   203   220   222   am
   204   134   133    2
   205   116   117    1
   206   116   114    1
   207   116   121    1
   208    33    34    1
   209   233   231    1
   210   123   121   am
   211   123   125    1
   212   132   131   ar
   213   112   114   am
   214   112    99    1
   215    10     9    2
   216   114   115    1
   217   231   232    1
   218   231   229   am
   219   166   165    1
   220    13    14    1
   221    13    11    1
   222   121   122    2
   223   125   133    1
   224    99   100    1
   225   265   266    1
   226    15    14    1
   227    15    16    1
   228   129   131   ar
   229   133   135   am
   230   222   223    1
   231   222   224    1
   232   165   171    1
   233   165   163    1
   234   230   229    2
   235   196   197    1
   236   196   194   am
   237   229   224    1
   238   172   171    2
   239   100   101    1
   240     9    11   am
   241     9     3    1
   242   224   225    1
   243   171   173   am
   244   195   194    2
   245    16    17    2
   246    16    18   am
   247    11    12    1
   248   101   102    1
   249   163   164    1
   250   163   161   am
   251   266   267    1
   252   104   103    1
   253   153   152    1
   254   194   188    1
   255   162   161    2
   256   267   268    1
   257     4     5    1
   258     4     3    1
   259     5     6    1
   260    19    18    1
   261   135   137    1
   262   135   136    1
   263   145   144    1
   264   140   141    1
   265   140   139    1
   266   161   154    1
   267   268   269    1
   268    18    20    1
   269   137   150    1
   270   137   138    1
   271   102   103    1
   272   152   150   am
   273   152   154    1
   274     3     1    1
   275   103   105    1
   276   173   174    1
   277   173   175    1
   278   150   151    2
   279   225   226    1
   280   141   142    1
   281   141   143    1
   282   154   155    1
   283   144   146    1
   284   144   143    2
   285   139   138    1
   286   185   184    2
   287   188   186    1
   288   188   189    1
   289     6     8   ar
   290     6     7   ar
   291     1     2    1
   292   227   226   ar
   293   184   186   am
   294   184   175    1
   295   186   187    1
   296   189   190    1
   297   269   270    1
   298   269   271    1
   299   269   272    1
   300   175   176    1
   301   143   147    1
   302   226   228   ar
   303   105   109    2
   304   105   106    1
   305   110   109    1
   306   107   106    1
   307   109   111    1
   308   106   108    1
   309   155   156    1
   310   147   148    1
   311   147   149    1
   312   159   158    1
   313   190   191    1
   314   176   177    1
   315   192   191   ar
   316   156   158   am
   317   156   157    2
   318   158   160    1
   319   191   193   ar
   320   177   178    1
   321   178   179    1
   322   179   180    1
   323   182   180    1
   324   180   181    1
   325   180   183    1
