@<TRIPOS>MOLECULE
/home/conradli/SAC-for-H-Bond-Learning/data/1LFC/1lfc_pnon.pdb
 282 289 0 0 0
SMALL
GASTEIGER

@<TRIPOS>ATOM
      1  N        -12.7940    1.9740    0.7080 N.3     1  PHE1       -0.2378
      2  H        -12.3360    2.2900    1.5880 H       1  PHE1        0.1418
      3  CA       -11.8210    1.1860   -0.1030 C.3     1  PHE1        0.1491
      4  CB       -10.8710    2.2230   -0.6990 C.3     1  PHE1        0.0527
      5  CG        -9.9820    1.5610   -1.7260 C.ar    1  PHE1       -0.0203
      6  CD1      -10.5480    0.7840   -2.7430 C.ar    1  PHE1       -0.0042
      7  CD2       -8.5940    1.7260   -1.6600 C.ar    1  PHE1       -0.0042
      8  CE1       -9.7240    0.1710   -3.6940 C.ar    1  PHE1       -0.0003
      9  CE2       -7.7700    1.1130   -2.6120 C.ar    1  PHE1       -0.0003
     10  CZ        -8.3350    0.3340   -3.6290 C.ar    1  PHE1       -0.0000
     11  C        -11.0570    0.2080    0.7930 C.2     1  PHE1        0.2386
     12  O        -10.5110    0.5820    1.8120 O.2     1  PHE1       -0.2736
     13  N        -11.0130   -1.0430    0.4210 N.am    2  LYS2       -0.2972
     14  H        -11.4600   -1.3240   -0.4040 H       2  LYS2        0.1499
     15  CA       -10.2830   -2.0430    1.2520 C.3     2  LYS2        0.1486
     16  CB       -11.3740   -2.9240    1.8610 C.3     2  LYS2        0.0289
     17  CG       -11.0990   -3.1210    3.3530 C.3     2  LYS2        0.0000
     18  CD       -11.6650   -4.4690    3.8030 C.3     2  LYS2       -0.0238
     19  CE       -11.0670   -4.8460    5.1610 C.3     2  LYS2       -0.0862
     20  NZ       -10.5280   -6.2220    4.9730 N.4     2  LYS2        0.3804
     21  HZ1      -11.2400   -6.8090    4.4900 H       2  LYS2       -0.0894
     22  HZ2       -9.6630   -6.1820    4.3990 H       2  LYS2       -0.0894
     23  HZ3      -10.3070   -6.6380    5.8990 H       2  LYS2       -0.0894
     24  C         -9.3470   -2.8770    0.3730 C.2     2  LYS2        0.2407
     25  O         -9.7650   -3.8040   -0.2900 O.2     2  LYS2       -0.2733
     26  N         -8.0820   -2.5540    0.3640 N.am    3  CYS3       -0.2963
     27  H         -7.7650   -1.8030    0.9070 H       3  CYS3        0.1499
     28  CA        -7.1210   -3.3300   -0.4710 C.3     3  CYS3        0.1603
     29  CB        -5.7900   -2.5970   -0.3380 C.3     3  CYS3        0.0976
     30  SG        -4.8930   -2.7060   -1.9030 S.3     3  CYS3       -0.0798
     31  C         -6.9890   -4.7560    0.0510 C.2     3  CYS3        0.2416
     32  O         -7.8550   -5.2670    0.7330 O.2     3  CYS3       -0.2733
     33  N         -5.9080   -5.4030   -0.2730 N.am    4  ARG4       -0.2970
     34  H         -5.2310   -4.9640   -0.8290 H       4  ARG4        0.1499
     35  CA        -5.7120   -6.8040    0.1970 C.3     4  ARG4        0.1487
     36  CB        -6.3910   -7.6700   -0.8680 C.3     4  ARG4        0.0325
     37  CG        -5.9110   -9.1190   -0.7390 C.3     4  ARG4        0.0450
     38  CD        -4.6170   -9.2980   -1.5360 C.3     4  ARG4        0.1739
     39  NE        -4.6500  -10.7080   -2.0110 N.pl3   4  ARG4       -0.2651
     40  HE        -4.6090  -11.4440   -1.3650 H       4  ARG4        0.2586
     41  CZ        -4.7350  -10.9650   -3.2880 C.cat   4  ARG4        0.3417
     42  NH1       -3.7440  -10.6590   -4.0820 N.pl3   4  ARG4       -0.2918
     43 HH11       -2.9210  -10.2280   -3.7100 H       4  ARG4        0.2545
     44 HH12       -3.8080  -10.8550   -5.0600 H       4  ARG4        0.2545
     45  NH2       -5.8080  -11.5260   -3.7720 N.pl3   4  ARG4       -0.2918
     46 HH21       -6.5670  -11.7600   -3.1640 H       4  ARG4        0.2545
     47 HH22       -5.8720  -11.7230   -4.7500 H       4  ARG4        0.2545
     48  C         -4.2230   -7.1550    0.3110 C.2     4  ARG4        0.2406
     49  O         -3.8320   -7.9460    1.1460 O.2     4  ARG4       -0.2733
     50  N         -3.3860   -6.5910   -0.5200 N.am    5  ARG5       -0.2970
     51  H         -3.7100   -5.9630   -1.1950 H       5  ARG5        0.1499
     52  CA        -1.9330   -6.9300   -0.4350 C.3     5  ARG5        0.1487
     53  CB        -1.7330   -8.0610   -1.4460 C.3     5  ARG5        0.0325
     54  CG        -1.4410   -9.3650   -0.7020 C.3     5  ARG5        0.0450
     55  CD         0.0740   -9.5600   -0.5890 C.3     5  ARG5        0.1739
     56  NE         0.2420  -10.9070    0.0240 N.pl3   5  ARG5       -0.2651
     57  HE        -0.3580  -11.6390   -0.2280 H       5  ARG5        0.2586
     58  CZ         1.1900  -11.1110    0.8990 C.cat   5  ARG5        0.3417
     59  NH1        1.3610  -10.2730    1.8840 N.pl3   5  ARG5       -0.2918
     60 HH11        0.7650   -9.4740    1.9690 H       5  ARG5        0.2545
     61 HH12        2.0870  -10.4310    2.5540 H       5  ARG5        0.2545
     62  NH2        1.9660  -12.1540    0.7870 N.pl3   5  ARG5       -0.2918
     63 HH21        1.8350  -12.7970    0.0320 H       5  ARG5        0.2545
     64 HH22        2.6910  -12.3120    1.4570 H       5  ARG5        0.2545
     65  C         -1.0520   -5.7330   -0.8000 C.2     5  ARG5        0.2406
     66  O         -0.6040   -5.6000   -1.9220 O.2     5  ARG5       -0.2733
     67  N         -0.7830   -4.8690    0.1400 N.am    6  TRP6       -0.2967
     68  H         -1.1410   -4.9910    1.0410 H       6  TRP6        0.1499
     69  CA         0.0840   -3.6990   -0.1540 C.3     6  TRP6        0.1530
     70  CB         0.0550   -2.8750    1.1270 C.3     6  TRP6        0.0569
     71  CG        -1.3100   -2.3320    1.2920 C.ar    6  TRP6       -0.0017
     72  CD2       -1.8230   -1.0620    0.8360 C.ar    6  TRP6        0.0131
     73  CE2       -3.1820   -0.9660    1.1970 C.ar    6  TRP6        0.0563
     74  CE3       -1.2340    0.0030    0.1510 C.ar    6  TRP6        0.0012
     75  CD1       -2.3250   -2.9660    1.8970 C.ar    6  TRP6        0.0681
     76  NE1       -3.4460   -2.1590    1.8420 N.ar    6  TRP6       -0.3523
     77  HE1       -4.3190   -2.3860    2.2060 H       6  TRP6        0.1660
     78  CZ2       -3.9400    0.1640    0.8850 C.ar    6  TRP6        0.0170
     79  CZ3       -1.9860    1.1440   -0.1680 C.ar    6  TRP6        0.0001
     80  CH2       -3.3390    1.2260    0.2000 C.ar    6  TRP6        0.0015
     81  C          1.5060   -4.1740   -0.4690 C.2     6  TRP6        0.2410
     82  O          2.2730   -4.4920    0.4190 O.2     6  TRP6       -0.2733
     83  N          1.8650   -4.2320   -1.7230 N.am    7  GLN7       -0.2970
     84  H          1.2320   -3.9780   -2.4260 H       7  GLN7        0.1499
     85  CA         3.2360   -4.6970   -2.0830 C.3     7  GLN7        0.1491
     86  CB         3.0940   -5.2940   -3.4850 C.3     7  GLN7        0.0385
     87  CG         4.4730   -5.4140   -4.1380 C.3     7  GLN7        0.0870
     88  CD         4.3790   -6.3200   -5.3660 C.2     7  GLN7        0.2194
     89  OE1        3.4510   -6.2160   -6.1430 O.2     7  GLN7       -0.2753
     90  NE2        5.3090   -7.2110   -5.5780 N.am    7  GLN7       -0.3288
     91 HE21        6.0590   -7.2940   -4.9520 H       7  GLN7        0.1449
     92 HE22        5.2580   -7.7950   -6.3620 H       7  GLN7        0.1449
     93  C          4.2190   -3.5200   -2.0890 C.2     7  GLN7        0.2407
     94  O          4.1420   -2.6380   -2.9210 O.2     7  GLN7       -0.2733
     95  N          5.1470   -3.5060   -1.1680 N.am    8  TRP8       -0.2967
     96  H          5.1920   -4.2260   -0.5070 H       8  TRP8        0.1499
     97  CA         6.1370   -2.3950   -1.1160 C.3     8  TRP8        0.1530
     98  CB         7.1800   -2.8510   -0.1050 C.3     8  TRP8        0.0569
     99  CG         6.7280   -2.4540    1.2580 C.ar    8  TRP8       -0.0017
    100  CD2        6.6910   -1.1300    1.8560 C.ar    8  TRP8        0.0131
    101  CE2        6.1800   -1.2400    3.1680 C.ar    8  TRP8        0.0563
    102  CE3        7.0500    0.1370    1.3890 C.ar    8  TRP8        0.0012
    103  CD1        6.2480   -3.3000    2.1840 C.ar    8  TRP8        0.0681
    104  NE1        5.9240   -2.5850    3.3200 N.ar    8  TRP8       -0.3523
    105  HE1        5.5550   -2.9660    4.1380 H       8  TRP8        0.1660
    106  CZ2        6.0330   -0.1240    3.9910 C.ar    8  TRP8        0.0170
    107  CZ3        6.9050    1.2680    2.2100 C.ar    8  TRP8        0.0001
    108  CH2        6.3970    1.1370    3.5110 C.ar    8  TRP8        0.0015
    109  C          6.7790   -2.1870   -2.4900 C.2     8  TRP8        0.2410
    110  O          7.6220   -2.9530   -2.9130 O.2     8  TRP8       -0.2733
    111  N          6.3920   -1.1550   -3.1870 N.am    9  ARG9       -0.2970
    112  H          5.7130   -0.5490   -2.8290 H       9  ARG9        0.1499
    113  CA         6.9870   -0.9000   -4.5280 C.3     9  ARG9        0.1487
    114  CB         6.0170    0.0580   -5.2180 C.3     9  ARG9        0.0325
    115  CG         4.7750   -0.7110   -5.6710 C.3     9  ARG9        0.0450
    116  CD         3.6710    0.2790   -6.0530 C.3     9  ARG9        0.1739
    117  NE         3.8640    0.5270   -7.5080 N.pl3   9  ARG9       -0.2651
    118  HE         4.6330    0.1360   -7.9740 H       9  ARG9        0.2586
    119  CZ         3.0090    1.2630   -8.1640 C.cat   9  ARG9        0.3417
    120  NH1        1.8580    0.7630   -8.5250 N.pl3   9  ARG9       -0.2918
    121 HH11        1.6330   -0.1850   -8.3000 H       9  ARG9        0.2545
    122 HH12        1.2040    1.3270   -9.0260 H       9  ARG9        0.2545
    123  NH2        3.3040    2.4990   -8.4580 N.pl3   9  ARG9       -0.2918
    124 HH21        4.1860    2.8830   -8.1810 H       9  ARG9        0.2545
    125 HH22        2.6500    3.0640   -8.9590 H       9  ARG9        0.2545
    126  C          8.3620   -0.2490   -4.3670 C.2     9  ARG9        0.2406
    127  O          8.8430   -0.0630   -3.2670 O.2     9  ARG9       -0.2733
    128  N          9.0010    0.0950   -5.4490 N.am   10  MET10      -0.2970
    129  H          8.6030   -0.0660   -6.3290 H      10  MET10       0.1499
    130  CA        10.3460    0.7260   -5.3420 C.3    10  MET10       0.1494
    131  CB        11.0240    0.4910   -6.6960 C.3    10  MET10       0.0406
    132  CG        10.6270   -0.8790   -7.2570 C.3    10  MET10       0.0598
    133  SD        11.9580   -1.5090   -8.3090 S.3    10  MET10      -0.1393
    134  CE        11.8220   -3.2490   -7.8310 C.3    10  MET10       0.0692
    135  C         10.2070    2.2260   -5.0770 C.2    10  MET10       0.2407
    136  O          9.2160    2.8410   -5.4160 O.2    10  MET10      -0.2733
    137  N         11.2000    2.8150   -4.4760 N.am   11  LYS11      -0.2970
    138  H         11.9870    2.2930   -4.2150 H      11  LYS11       0.1499
    139  CA        11.1440    4.2760   -4.1840 C.3    11  LYS11       0.1486
    140  CB        10.3160    4.3990   -2.9050 C.3    11  LYS11       0.0289
    141  CG         9.0490    5.2070   -3.1950 C.3    11  LYS11       0.0000
    142  CD         8.6850    6.0450   -1.9670 C.3    11  LYS11      -0.0238
    143  CE         9.6970    7.1820   -1.8060 C.3    11  LYS11      -0.0862
    144  NZ         9.0760    8.1100   -0.8200 N.4    11  LYS11       0.3804
    145  HZ1        8.5320    7.5640   -0.1230 H      11  LYS11      -0.0894
    146  HZ2        9.8200    8.6470   -0.3330 H      11  LYS11      -0.0894
    147  HZ3        8.4410    8.7680   -1.3170 H      11  LYS11      -0.0894
    148  C         12.5520    4.8250   -3.9710 C.2    11  LYS11       0.2406
    149  O         13.5210    4.2940   -4.4750 O.2    11  LYS11      -0.2733
    150  N         12.6630    5.8950   -3.2400 N.am   12  LYS12      -0.2970
    151  H         11.8590    6.3030   -2.8630 H      12  LYS12       0.1499
    152  CA        14.0070    6.5020   -2.9910 C.3    12  LYS12       0.1486
    153  CB        13.7840    7.5970   -1.9450 C.3    12  LYS12       0.0289
    154  CG        12.5560    8.4310   -2.3160 C.3    12  LYS12       0.0000
    155  CD        12.9450    9.9100   -2.3890 C.3    12  LYS12      -0.0238
    156  CE        11.9760   10.6480   -3.3120 C.3    12  LYS12      -0.0862
    157  NZ        11.5120   11.8230   -2.5230 N.4    12  LYS12       0.3804
    158  HZ1       12.3340   12.3980   -2.2430 H      12  LYS12      -0.0894
    159  HZ2       10.8670   12.3980   -3.1010 H      12  LYS12      -0.0894
    160  HZ3       11.0130   11.4950   -1.6730 H      12  LYS12      -0.0894
    161  C         14.9880    5.4560   -2.4540 C.2    12  LYS12       0.2406
    162  O         14.7630    4.2650   -2.5380 O.2    12  LYS12      -0.2733
    163  N         16.0820    5.9050   -1.9130 N.am   13  LEU13      -0.2970
    164  H         16.2400    6.8630   -1.8700 H      13  LEU13       0.1499
    165  CA        17.1040    4.9650   -1.3810 C.3    13  LEU13       0.1486
    166  CB        18.3350    5.8320   -1.1250 C.3    13  LEU13       0.0290
    167  CG        18.0160    6.8610   -0.0400 C.3    13  LEU13       0.0021
    168  CD1       18.9020    6.6080    1.1810 C.3    13  LEU13       0.0001
    169  CD2       18.2830    8.2690   -0.5790 C.3    13  LEU13       0.0001
    170  C         16.6350    4.3070   -0.0780 C.2    13  LEU13       0.2407
    171  O         16.0960    4.9510    0.7990 O.2    13  LEU13      -0.2733
    172  N         16.8570    3.0260    0.0540 N.am   14  GLY14      -0.2953
    173  H         17.3040    2.5340   -0.6650 H      14  GLY14       0.1499
    174  CA        16.4510    2.3140    1.2990 C.3    14  GLY14       0.1757
    175  C         15.0450    2.7350    1.7190 C.2    14  GLY14       0.2428
    176  O         14.7940    3.0280    2.8720 O.2    14  GLY14      -0.2732
    177  N         14.1220    2.7640    0.8020 N.am   15  ALA15      -0.2969
    178  H         14.3420    2.5210   -0.1190 H      15  ALA15       0.1499
    179  CA        12.7330    3.1620    1.1660 C.3    15  ALA15       0.1489
    180  CB        12.7660    4.6850    1.2690 C.3    15  ALA15       0.0312
    181  C         11.7450    2.7210    0.0850 C.2    15  ALA15       0.2438
    182  O         11.5820    3.3840   -0.9180 O.2    15  ALA15      -0.2731
    183  N         11.1140    1.6110    0.3370 N.am   16  PRO16      -0.2717
    184  CD        11.2760    0.7690    1.5230 C.3    16  PRO16       0.0939
    185  CA        10.1170    1.0610   -0.6130 C.3    16  PRO16       0.1518
    186  CB         9.9290   -0.3780   -0.1350 C.3    16  PRO16       0.0310
    187  CG        10.2980   -0.3600    1.3170 C.3    16  PRO16       0.0237
    188  C          8.8050    1.8470   -0.5180 C.2    16  PRO16       0.2409
    189  O          8.6650    2.7460    0.2860 O.2    16  PRO16      -0.2733
    190  N          7.8370    1.5070   -1.3260 N.am   17  SER17      -0.2950
    191  H          7.9670    0.7720   -1.9630 H      17  SER17       0.1499
    192  CA         6.5290    2.2250   -1.2750 C.3    17  SER17       0.1782
    193  CB         6.5310    3.1460   -2.4930 C.3    17  SER17       0.1660
    194  OG         6.6350    4.4950   -2.0620 O.3    17  SER17      -0.3798
    195  HG         7.0750    4.5010   -1.2090 H      17  SER17       0.2105
    196  C          5.3770    1.2190   -1.3650 C.2    17  SER17       0.2432
    197  O          5.0070    0.7850   -2.4390 O.2    17  SER17      -0.2732
    198  N          4.8110    0.8380   -0.2520 N.am   18  ILE18      -0.2969
    199  H          5.1230    1.1940    0.6050 H      18  ILE18       0.1499
    200  CA         3.6900   -0.1450   -0.2900 C.3    18  ILE18       0.1485
    201  CB         3.5530   -0.6530    1.1610 C.3    18  ILE18       0.0269
    202  CG2        2.3840    0.0210    1.8830 C.3    18  ILE18       0.0022
    203  CG1        3.3210   -2.1660    1.1440 C.3    18  ILE18       0.0021
    204  CD         3.3690   -2.7080    2.5730 C.3    18  ILE18       0.0001
    205  C          2.4130    0.5300   -0.8060 C.2    18  ILE18       0.2407
    206  O          1.8600    1.4130   -0.1780 O.2    18  ILE18      -0.2733
    207  N          1.9500    0.1220   -1.9540 N.am   19  THR19      -0.2951
    208  H          2.4160   -0.5870   -2.4450 H      19  THR19       0.1499
    209  CA         0.7160    0.7310   -2.5230 C.3    19  THR19       0.1757
    210  CB         1.0880    1.1150   -3.9570 C.3    19  THR19       0.1373
    211  OG1        2.3050    1.8490   -3.9460 O.3    19  THR19      -0.3823
    212  HG1        2.2800    2.4740   -4.6750 H      19  THR19       0.2104
    213  CG2       -0.0220    1.9730   -4.5630 C.3    19  THR19       0.0340
    214  C         -0.4160   -0.2960   -2.5190 C.2    19  THR19       0.2431
    215  O         -0.2140   -1.4500   -2.1990 O.2    19  THR19      -0.2732
    216  N         -1.6040    0.1070   -2.8680 N.am   20  CYS20      -0.2962
    217  H         -1.7510    1.0420   -3.1230 H      20  CYS20       0.1499
    218  CA        -2.7400   -0.8570   -2.8770 C.3    20  CYS20       0.1603
    219  CB        -3.9970    0.0120   -2.8600 C.3    20  CYS20       0.0976
    220  SG        -5.4590   -1.0500   -2.9100 S.3    20  CYS20      -0.0798
    221  C         -2.6980   -1.7120   -4.1460 C.2    20  CYS20       0.2416
    222  O         -2.7880   -1.2060   -5.2470 O.2    20  CYS20      -0.2733
    223  N         -2.5610   -3.0040   -4.0060 N.am   21  VAL21      -0.2970
    224  H         -2.4880   -3.3970   -3.1110 H      21  VAL21       0.1499
    225  CA        -2.5140   -3.8780   -5.2160 C.3    21  VAL21       0.1485
    226  CB        -1.2880   -4.7950   -5.0330 C.3    21  VAL21       0.0269
    227  CG1       -0.1750   -4.0490   -4.2940 C.3    21  VAL21       0.0022
    228  CG2       -1.6700   -6.0350   -4.2190 C.3    21  VAL21       0.0022
    229  C         -3.8030   -4.6850   -5.3190 C.2    21  VAL21       0.2406
    230  O         -3.8440   -5.7610   -5.8820 O.2    21  VAL21      -0.2733
    231  N         -4.8510   -4.1580   -4.7750 N.am   22  ARG22      -0.2970
    232  H         -4.7730   -3.2860   -4.3400 H      22  ARG22       0.1499
    233  CA        -6.1630   -4.8620   -4.8220 C.3    22  ARG22       0.1487
    234  CB        -6.0770   -5.9330   -3.7350 C.3    22  ARG22       0.0325
    235  CG        -6.0330   -7.3170   -4.3850 C.3    22  ARG22       0.0450
    236  CD        -7.2940   -8.0990   -4.0100 C.3    22  ARG22       0.1739
    237  NE        -8.2780   -7.7760   -5.0800 N.pl3  22  ARG22      -0.2651
    238  HE        -8.6020   -6.8580   -5.1880 H      22  ARG22       0.2586
    239  CZ        -8.7080   -8.7170   -5.8760 C.cat  22  ARG22       0.3417
    240  NH1       -7.9480   -9.1530   -6.8420 N.pl3  22  ARG22      -0.2918
    241 HH11       -7.0350   -8.7670   -6.9730 H      22  ARG22       0.2545
    242 HH12       -8.2770   -9.8740   -7.4520 H      22  ARG22       0.2545
    243  NH2       -9.8990   -9.2220   -5.7050 N.pl3  22  ARG22      -0.2918
    244 HH21      -10.4830   -8.8880   -4.9650 H      22  ARG22       0.2545
    245 HH22      -10.2290   -9.9430   -6.3150 H      22  ARG22       0.2545
    246  C         -7.2970   -3.8810   -4.5200 C.2    22  ARG22       0.2406
    247  O         -7.2300   -3.1150   -3.5800 O.2    22  ARG22      -0.2733
    248  N         -8.3370   -3.8930   -5.3050 N.am   23  ARG23      -0.2970
    249  H         -8.3790   -4.5110   -6.0600 H      23  ARG23       0.1499
    250  CA        -9.4650   -2.9600   -5.0510 C.3    23  ARG23       0.1487
    251  CB        -9.7950   -2.3800   -6.4230 C.3    23  ARG23       0.0325
    252  CG        -8.5570   -1.6880   -6.9930 C.3    23  ARG23       0.0450
    253  CD        -8.9420   -0.9000   -8.2470 C.3    23  ARG23       0.1739
    254  NE        -8.6760    0.5240   -7.9030 N.pl3  23  ARG23      -0.2651
    255  HE        -7.8060    0.9230   -8.1100 H      23  ARG23       0.2586
    256  CZ        -9.6020    1.2390   -7.3260 C.cat  23  ARG23       0.3417
    257  NH1      -10.7510    1.4190   -7.9170 N.pl3  23  ARG23      -0.2918
    258 HH11      -10.9220    1.0080   -8.8140 H      23  ARG23       0.2545
    259 HH12      -11.4610    1.9670   -7.4750 H      23  ARG23       0.2545
    260  NH2       -9.3790    1.7740   -6.1560 N.pl3  23  ARG23      -0.2918
    261 HH21       -8.4990    1.6360   -5.7030 H      23  ARG23       0.2545
    262 HH22      -10.0890    2.3220   -5.7140 H      23  ARG23       0.2545
    263  C        -10.6610   -3.7260   -4.4830 C.2    23  ARG23       0.2406
    264  O        -11.7600   -3.6540   -4.9970 O.2    23  ARG23      -0.2733
    265  N        -10.4550   -4.4560   -3.4220 N.am   24  ALA24      -0.2970
    266  H         -9.5600   -4.4980   -3.0260 H      24  ALA24       0.1499
    267  CA       -11.5780   -5.2280   -2.8170 C.3    24  ALA24       0.1486
    268  CB       -10.9080   -6.2250   -1.8710 C.3    24  ALA24       0.0312
    269  C        -12.5060   -4.2910   -2.0390 C.2    24  ALA24       0.2406
    270  O        -12.0950   -3.6300   -1.1070 O.2    24  ALA24      -0.2733
    271  N        -13.7530   -4.2280   -2.4200 N.am   25  PHE25      -0.2977
    272  H        -14.0620   -4.7670   -3.1750 H      25  PHE25       0.1498
    273  CA       -14.7090   -3.3340   -1.7070 C.3    25  PHE25       0.1412
    274  CB       -16.0950   -3.8670   -2.0700 C.3    25  PHE25       0.0540
    275  CG       -16.6050   -3.1470   -3.2970 C.ar   25  PHE25      -0.0201
    276  CD1      -16.9630   -1.7970   -3.2170 C.ar   25  PHE25      -0.0042
    277  CD2      -16.7200   -3.8320   -4.5130 C.ar   25  PHE25      -0.0042
    278  CE1      -17.4360   -1.1290   -4.3530 C.ar   25  PHE25      -0.0003
    279  CE2      -17.1930   -3.1640   -5.6490 C.ar   25  PHE25      -0.0003
    280  CZ       -17.5510   -1.8140   -5.5700 C.ar   25  PHE25      -0.0000
    281  C        -14.4840   -3.4120   -0.1940 C.2    25  PHE25       0.2270
    282  O        -14.4630   -4.5160    0.3260 O.2    25  PHE25      -0.2865
@<TRIPOS>BOND
     1   122   120    1
     2   125   123    1
     3   258   257    1
     4   120   121    1
     5   120   119    2
     6   123   124    1
     7   123   119    1
     8   133   134    1
     9   133   132    1
    10   253   254    1
    11   253   252    1
    12   119   117    1
    13   255   254    1
    14   118   117    1
    15   257   259    1
    16   257   256    2
    17   254   256    1
    18   117   116    1
    19   242   240    1
    20   256   260    1
    21   132   131    1
    22   252   251    1
    23   241   240    1
    24   240   239    2
    25   131   130    1
    26   251   250    1
    27    92    90    1
    28   129   128    1
    29   245   243    1
    30   260   262    1
    31   260   261    1
    32    89    88    2
    33   249   248    1
    34   116   115    1
    35   230   229    2
    36   239   243    1
    37   239   237    1
    38   243   244    1
    39   115   114    1
    40   279   280   ar
    41   279   277   ar
    42    90    88   am
    43    90    91    1
    44   280   278   ar
    45   128   130    1
    46   128   126   am
    47   136   135    2
    48    88    87    1
    49   130   135    1
    50   229   225    1
    51   229   231   am
    52   248   250    1
    53   248   246   am
    54   222   221    2
    55   114   113    1
    56   225   226    1
    57   225   223    1
    58   238   237    1
    59   237   236    1
    60   135   137   am
    61    44    42    1
    62   250   263    1
    63   226   227    1
    64   226   228    1
    65   264   263    2
    66   233   231    1
    67   233   246    1
    68   233   234    1
    69   231   232    1
    70    47    45    1
    71   212   211    1
    72   213   210    1
    73   113   126    1
    74   113   111    1
    75   246   247    2
    76   277   275   ar
    77   263   265   am
    78   137   138    1
    79   137   139    1
    80   149   148    2
    81   235   236    1
    82   235   234    1
    83   126   127    2
    84   278   276   ar
    85   139   148    1
    86   139   140    1
    87   221   223   am
    88   221   218    1
    89    87    86    1
    90    42    43    1
    91    42    41    2
    92   223   224    1
    93   148   150   am
    94   210   211    1
    95   210   209    1
    96    45    41    1
    97    45    46    1
    98     8    10   ar
    99     8     6   ar
   100    10     9   ar
   101    86    85    1
   102   265   266    1
   103   265   267    1
   104   156   157    1
   105   156   155    1
   106   275   276   ar
   107   275   274    1
   108    41    39    1
   109   150   152    1
   110   150   151    1
   111   141   140    1
   112   141   142    1
   113   111   112    1
   114   111   109   am
   115   272   271    1
   116   217   216    1
   117   159   157    1
   118   152   161    1
   119   152   153    1
   120    94    93    2
   121   110   109    2
   122   220   219    1
   123   220    30    1
   124   218   216    1
   125   218   219    1
   126   216   214   am
   127   267   269    1
   128   267   268    1
   129     6     5   ar
   130     9     7   ar
   131   162   161    2
   132   157   158    1
   133   157   160    1
   134   209   214    1
   135   209   207    1
   136   214   215    2
   137   193   194    1
   138   193   192    1
   139   109    97    1
   140   161   163   am
   141   208   207    1
   142   197   196    2
   143    84    83    1
   144   271   269   am
   145   271   273    1
   146   155   154    1
   147   154   153    1
   148    93    85    1
   149    93    95   am
   150    85    83    1
   151   274   273    1
   152   194   195    1
   153   269   270    2
   154    39    38    1
   155    39    40    1
   156   142   143    1
   157   191   190    1
   158   207   205   am
   159    66    65    2
   160   163   164    1
   161   163   165    1
   162    30    29    1
   163   143   144    1
   164     5     7   ar
   165     5     4    1
   166    83    81   am
   167   273   281    1
   168    38    37    1
   169    53    54    1
   170    53    52    1
   171   165   166    1
   172   165   170    1
   173   196   192    1
   174   196   198   am
   175   190   192    1
   176   190   188   am
   177   147   144    1
   178    51    50    1
   179    95    97    1
   180    95    96    1
   181   166   167    1
   182    97    98    1
   183   182   181    2
   184    36    37    1
   185    36    35    1
   186    34    33    1
   187   144   146    1
   188   144   145    1
   189   205   200    1
   190   205   206    2
   191    65    52    1
   192    65    67   am
   193    54    55    1
   194     4     3    1
   195   173   172    1
   196   185   188    1
   197   185   186    1
   198   185   183    1
   199    55    56    1
   200   169   167    1
   201    50    52    1
   202    50    48   am
   203   188   189    2
   204    28    29    1
   205    28    31    1
   206    28    26    1
   207    81    69    1
   208    81    82    2
   209    14    13    1
   210   200   198    1
   211   200   201    1
   212    25    24    2
   213    33    31   am
   214    33    35    1
   215   198   199    1
   216    57    56    1
   217   281   282    2
   218    79    74   ar
   219    79    80   ar
   220    69    67    1
   221    69    70    1
   222   186   187    1
   223   178   177    1
   224    98    99    1
   225     3     1    1
   226     3    11    1
   227   170   172   am
   228   170   171    2
   229   167   168    1
   230    56    58    1
   231    63    62    1
   232    31    32    2
   233   172   174    1
   234   181   183   am
   235   181   179    1
   236    67    68    1
   237    74    72   ar
   238    35    48    1
   239    80    78   ar
   240    48    49    2
   241   183   184    1
   242    26    24   am
   243    26    27    1
   244    24    15    1
   245    13    11   am
   246    13    15    1
   247     1     2    1
   248    62    58    2
   249    62    64    1
   250    11    12    2
   251   177   179    1
   252   177   175   am
   253    72    73   ar
   254    72    71   ar
   255    78    73   ar
   256    58    59    1
   257    70    71    1
   258   203   201    1
   259   203   204    1
   260   201   202    1
   261   179   180    1
   262    73    76   ar
   263    15    16    1
   264    99   100   ar
   265    99   103   ar
   266    71    75   ar
   267   174   175    1
   268   187   184    1
   269   102   100   ar
   270   102   107   ar
   271   175   176    2
   272    76    75   ar
   273    76    77    1
   274   100   101   ar
   275    16    17    1
   276    59    60    1
   277    59    61    1
   278   103   104   ar
   279   107   108   ar
   280   101   104   ar
   281   101   106   ar
   282   104   105    1
   283    17    18    1
   284   108   106   ar
   285    18    19    1
   286    22    20    1
   287    21    20    1
   288    20    19    1
   289    20    23    1
