@<TRIPOS>MOLECULE
ala_dip_charmm.pdb
 9 8 0 0 0
SMALL
GASTEIGER

@<TRIPOS>ATOM
      1  CH3        2.0000    2.0900    0.0000 C.3     1  ACE1        0.0946
      2  C          3.4270    2.6410   -0.0000 C.2     1  ACE1        0.2232
      3  O          4.3910    1.8770   -0.0000 O.2     1  ACE1       -0.2751
      4  N          3.5550    3.9700   -0.0000 N.am    2  ALA2       -0.2993
      5  H          2.7330    4.5560   -0.0000 H       2  ALA2        0.1498
      6  CA         4.8530    4.6140   -0.0000 C.3     2  ALA2        0.1369
      7  CB         5.6610    4.2210   -1.2320 C.3     2  ALA2        0.0298
      8  C          4.7130    6.1290    0.0000 C.2     2  ALA2        0.2266
      9  O          3.6010    6.6530    0.0000 O.2     2  ALA2       -0.2865
@<TRIPOS>BOND
     1     7     6    1
     2     1     2    1
     3     2     3    2
     4     2     4   am
     5     4     5    1
     6     4     6    1
     7     6     8    1
     8     8     9    2
